15
Energy =
C     0.1703464    0.6154974   -0.2389312 
C    -0.6311723   -0.4753626    0.4656928 
H     0.1877067    0.4220692   -1.3167173 
C     1.6012596    0.7720674    0.2660307 
S     2.6944598   -0.6671610   -0.0371551 
H     2.7031799   -0.5744814   -1.3777074 
H     1.6135824    0.8924890    1.3514816 
H     2.0729894    1.6564991   -0.1611592 
H    -0.3380604    1.5785038   -0.1094653 
H    -0.6677154   -0.2532994    1.5378485 
C    -2.0503545   -0.6092726   -0.0790341 
H    -0.1037688   -1.4268208    0.3665719 
H    -2.0397330   -0.8657022   -1.1414640 
H    -2.6050610   -1.3899207    0.4447976 
H    -2.6076589    0.3248948    0.0292104 
