15
Energy =
C     0.1726386    0.6159688   -0.2338689 
C    -0.6266406   -0.4727030    0.4610544 
H     0.1886727    0.4298425   -1.3111214 
C     1.5960304    0.7752770    0.2677528 
S     2.6892149   -0.6712380   -0.0275776 
H     2.6609726   -0.5943260   -1.3750572 
H     1.6093581    0.9041853    1.3495750 
H     2.0666250    1.6556334   -0.1641632 
H    -0.3349496    1.5773705   -0.1035209 
H    -0.6635993   -0.2575513    1.5326317 
C    -2.0386292   -0.6085577   -0.0814713 
H    -0.0975947   -1.4207469    0.3611414 
H    -2.0307515   -0.8605984   -1.1424653 
H    -2.5900284   -1.3917288    0.4372794 
H    -2.6013190    0.3191725    0.0298110 
