  42
        -49.47486013
 O          3.5207210108       -0.1711231652        0.9827831392
 C          1.2299210531       -0.0415269832        0.1947010463
 C         -1.1522258862        0.4888291976       -0.4107230344
 C         -1.8556729740       -0.5185377766        0.0961248950
 C          0.2702621338        0.4886871229       -0.8772829735
 C         -1.9534698012        1.7715712509       -0.4286080172
 C         -1.4366830771       -1.9422908131        0.3194438558
 C          1.1408919481       -1.5675469818        0.3072989812
 C         -0.0933061168       -2.0695179308        1.0530419082
 C         -3.2555169612       -0.0888986991        0.4539798523
 C         -3.3964628425        1.2883853367       -0.2058960984
 C          2.7022910920        0.4063919291       -0.0283308726
 C         -1.4824087871        2.7120121753        0.6831420408
 C         -1.4543720708       -2.7113417587       -1.0058521759
 C          2.8349211887        1.9347499170        0.0573761945
 C          3.2734691164       -0.0889200550       -1.3560648681
 H          0.9218270397        0.3847969983        1.1595130503
 H          0.3615021319       -0.1260498469       -1.7767179943
 H          0.5378422125        1.5090281163       -1.1508959210
 H         -1.8502477262        2.2890682826       -1.3881019919
 H         -2.1876211354       -2.4042507901        0.9733968050
 H          2.0236929019       -1.9181620615        0.8480510049
 H          1.1715149615       -2.0114289439       -0.6874760353
 H          0.0583518039       -3.1286249499        1.2801928721
 H         -0.1733721229       -1.5405109638        2.0067679260
 H         -4.0014589923       -0.7990296356        0.0929257919
 H         -3.3610940038       -0.0284187359        1.5415098502
 H         -3.9006598082        1.1839774084       -1.1672991241
 H         -3.9706298228        1.9848223499        0.4032169050
 H         -1.5895328603        2.2279721434        1.6513010168
 H         -0.4368797637        2.9781231122        0.5437490963
 H         -2.0710547270        3.6271162139        0.6839400524
 H         -0.8085740084       -2.2397227716       -1.7403541293
 H         -1.1234321446       -3.7367167865       -0.8545692029
 H         -2.4640580547       -2.7296356762       -1.4102702199
 H          3.8888562018        2.1908698443        0.1448192499
 H          2.4416512586        2.4218349784       -0.8294168028
 H          2.3118181765        2.3197409162        0.9319221875
 H          4.3005651429        0.2534868814       -1.4510108103
 H          2.6938451771        0.2909500166       -2.1911778776
 H          3.2759180460       -1.1739340543       -1.3774359116
 H          3.2188479953        0.1517138202        1.8390971393
