   42
FINAL HEAT OF FORMATION =    -6.542383
 O    -2.609114    -1.805216    -0.255223
 C    -1.217795     0.110542     0.274586
 C     1.151284    -0.462763    -0.406032
 C     1.895713     0.550099     0.048188
 C    -0.271901    -0.372728    -0.835281
 C     1.927932    -1.772181    -0.406838
 C     1.452498     1.978235     0.221602
 C    -1.117833     1.629019     0.498107
 C     0.199907     2.103242     1.116465
 C     3.293528     0.093754     0.381792
 C     3.363628    -1.407968     0.051589
 C    -2.673591    -0.382609    -0.007144
 C     1.283246    -2.820533     0.500758
 C     1.298612     2.700729    -1.117820
 C    -3.267433     0.313947    -1.237959
 C    -3.574883    -0.143493     1.213542
 H    -0.909351    -0.390692     1.203890
 H    -0.358942     0.273887    -1.713056
 H    -0.599107    -1.361739    -1.175573
 H     1.952205    -2.149611    -1.443099
 H     2.278586     2.476723     0.761837
 H    -1.945080     1.949157     1.142175
 H    -1.286822     2.143678    -0.452913
 H     0.094089     3.154521     1.415954
 H     0.374712     1.552415     2.048377
 H     4.025530     0.672633    -0.195207
 H     3.503292     0.284900     1.441673
 H     4.103835    -1.619286    -0.730499
 H     3.652901    -2.002849     0.925777
 H     1.859492    -3.746986     0.513245
 H     1.224097    -2.452198     1.525412
 H     0.268003    -3.060341     0.181727
 H     2.226945     2.673267    -1.691036
 H     0.529555     2.237650    -1.733609
 H     1.020752     3.746717    -0.977773
 H    -3.339201     1.390467    -1.089478
 H    -2.656711     0.127401    -2.119348
 H    -4.268783    -0.061847    -1.443727
 H    -3.713676     0.917389     1.414149
 H    -3.147837    -0.609954     2.099940
 H    -4.559803    -0.578999     1.050814
 H    -3.515355    -2.141800    -0.430320
