12
Energy =
C     1.5893109    0.3087886   -0.1882783 
H     1.7831637    1.0544068    0.5865901 
H     2.5000413   -0.2780484   -0.3228590 
H     1.3859263    0.8419352   -1.1189746 
C     0.4072001   -0.5888939    0.1946883 
C    -0.8507892    0.1894659    0.4322654 
C    -1.9818492    0.0459435   -0.2467509 
H    -2.8561086    0.6474280   -0.0315770 
H    -2.0745464   -0.6834991   -1.0444138 
H    -0.8009735    0.9380438    1.2206321 
H     0.2344050   -1.3336710   -0.5868525 
H     0.6642195   -1.1418995    1.1055302 
