12
Energy =
C     1.5836856    0.3074019   -0.1871596 
H     1.7828990    1.0507566    0.5848681 
H     2.4923242   -0.2775914   -0.3249476 
H     1.3813699    0.8417732   -1.1142346 
C     0.4069019   -0.5854897    0.1949128 
C    -0.8468303    0.1874950    0.4300880 
C    -1.9778206    0.0460788   -0.2476552 
H    -2.8516922    0.6463988   -0.0325965 
H    -2.0747564   -0.6810158   -1.0454802 
H    -0.7978284    0.9343466    1.2194417 
H     0.2379745   -1.3330881   -0.5818299 
H     0.6637728   -1.1370661    1.1045930 
