32
Energy =
C     0.2066865    0.1357327   -0.0268264 
C     1.3128019    0.5002253   -1.0559157 
H     1.5410946   -0.3911678   -1.6457484 
C     2.6218655    1.0648865   -0.5048026 
H     3.3128627    1.2705483   -1.3251308 
H     3.1202254    0.3681075    0.1711034 
H     2.4746651    2.0015215    0.0344906 
H     0.9007080    1.2236721   -1.7630296 
C    -0.2154384    1.4453727    0.6847127 
C    -1.3404435    1.3896758    1.7187778 
H    -1.4155858    2.3498056    2.2341720 
H    -1.1665057    0.6271150    2.4793991 
H    -2.3114582    1.1918864    1.2660410 
H    -0.4768835    2.1865580   -0.0754814 
H     0.6718685    1.8405536    1.1848532 
C     0.7782482   -0.8389118    1.0283593 
C     1.4019242   -2.1274586    0.4926945 
H     1.7233325   -2.7650834    1.3188995 
H     0.7006689   -2.7054589   -0.1111563 
H     2.2789156   -1.9301074   -0.1254623 
H    -0.0076095   -1.0973285    1.7390747 
H     1.5305561   -0.3036952    1.6142335 
C    -0.9590042   -0.5332430   -0.8369349 
C    -1.9368041   -1.3961755   -0.0273275 
H    -2.4957312   -0.8177348    0.7065537 
H    -2.6642229   -1.8498585   -0.7048591 
H    -1.4390019   -2.2085775    0.5003875 
C    -1.7574933    0.4602559   -1.6904523 
H    -1.1192946    1.0862321   -2.3139637 
H    -2.3704575    1.1194195   -1.0727895 
H    -2.4336256   -0.0800061   -2.3565352 
H    -0.4668640   -1.2167611   -1.5373370 
