   32
FINAL HEAT OF FORMATION =    -6.287386
 O     0.243209     2.205786     0.637306
 C    -0.349119     1.145848     0.584964
 N     0.107597    -0.127325     0.912806
 C     1.513841    -0.472061     1.208412
 C     1.996600    -1.441024     0.149559
 O     1.557921    -2.568196     0.138646
 N     2.919416    -1.002290    -0.783624
 C     3.421409     0.281587    -0.909730
 O     4.256120     0.563647    -1.738960
 C     2.892916     1.330338     0.018988
 C     2.439844     0.749883     1.367482
 H     3.319092     0.477121     1.962248
 H     1.905726     1.519358     1.939580
 H     2.047745     1.829705    -0.466859
 H     3.665344     2.095356     0.155393
 H     3.251197    -1.684108    -1.448508
 H     1.483124    -1.030094     2.156146
 C    -0.898392    -1.170612     0.664277
 C    -2.065142    -0.396628     0.139591
 C    -3.321821    -0.836173    -0.288460
 C    -4.227200     0.137651    -0.726013
 C    -3.892951     1.477721    -0.742141
 C    -2.647170     1.901997    -0.324572
 C    -1.738911     0.955818     0.118011
 H    -2.366739     2.940842    -0.337883
 H    -4.611732     2.202211    -1.087587
 H    -5.201097    -0.178649    -1.054711
 N    -3.649667    -2.182409    -0.281419
 H    -2.941477    -2.894642    -0.182448
 H    -4.456863    -2.529533    -0.778125
 H    -1.138896    -1.695152     1.593188
 H    -0.513769    -1.887370    -0.067633
