   57
FINAL HEAT OF FORMATION =   -11.439726
 O     0.720332     2.202527    -1.314580
 C     1.819183     1.702171    -1.501380
 N     2.960046     2.278985    -0.928235
 C     4.199859     1.511568    -0.679308
 H     4.270536     0.669531    -1.370214
 H     5.056685     2.161046    -0.881071
 C     4.217385     1.011967     0.772527
 N     3.147892     0.009978     0.943740
 C     3.173528    -1.219789     0.276946
 N     4.145359    -1.817027    -0.418120
 C     3.727801    -2.900877    -1.023293
 N     2.514291    -3.452389    -1.084377
 C     1.547098    -2.834753    -0.416265
 N     0.243890    -3.283053    -0.490195
 H     0.028698    -4.192481    -0.869204
 H    -0.472345    -2.925784     0.122938
 C     1.871331    -1.677916     0.327586
 C     1.127833    -0.674781     1.044613
 N     1.929706     0.326004     1.375975
 C    -0.337228    -0.608989     1.194537
 C    -1.047926    -1.557524     1.931599
 C    -2.415173    -1.488594     2.020403
 C    -3.123032    -0.467704     1.385455
 C    -2.406565     0.500390     0.681074
 C    -1.041067     0.429545     0.585930
 H    -0.490521     1.158657     0.013549
 H    -2.942564     1.309230     0.217625
 O    -4.525542    -0.434673     1.489006
 C    -5.275972     0.027480     0.394372
 C    -4.854742    -0.135435    -0.925281
 C    -5.620980     0.328088    -1.969314
 C    -6.824862     0.957167    -1.720685
 C    -7.262822     1.116397    -0.420789
 C    -6.499616     0.654317     0.626089
 H    -6.828832     0.771245     1.643231
 H    -8.204278     1.603110    -0.226029
 H    -7.423408     1.319813    -2.539981
 H    -5.282067     0.197558    -2.983871
 H    -3.926568    -0.644032    -1.115344
 H    -2.968721    -2.219737     2.582287
 H    -0.506794    -2.339378     2.436727
 H     4.487693    -3.427416    -1.583852
 C     4.034048     2.188350     1.752140
 H     3.951416     1.793175     2.772168
 C     2.794694     3.036606     1.411537
 H     1.887887     2.458875     1.624533
 C     2.781458     3.449272    -0.062673
 H     1.833967     3.927505    -0.337853
 H     3.576889     4.169686    -0.277618
 H     2.741300     3.921996     2.059306
 H     4.928709     2.821547     1.743060
 H     5.166398     0.492731     0.978192
 C     1.937788     0.493777    -2.320624
 C     0.897364    -0.284026    -2.557353
 H     0.973894    -1.173536    -3.151586
 H    -0.059808    -0.049237    -2.137668
 H     2.890750     0.261187    -2.760075
