  98
       -148.21900695
 S          1.6258716873        2.9549631349       -1.4464429819
 C          1.4930298481        3.1582912515        0.2558197080
 C          0.2149273699        2.9537421738        0.6676926045
 N         -0.6474701021        2.6501704861       -0.3414514257
 C         -0.0857591395        2.5986702589       -1.4964030107
 C         -0.8121634341        2.3368622076       -2.7674221197
 C         -1.0779753008        3.6718002319       -3.4724711884
 H         -0.1379174884        4.1485728704       -3.7446316407
 H         -1.6348735114        4.3441080811       -2.8237521878
 H         -1.6578374790        3.5027347093       -4.3758807815
 C         -0.0223810015        1.3922590518       -3.6701952904
 H          0.0984342296        0.4264760717       -3.1862491116
 H          0.9579984445        1.8098702617       -3.8949392114
 H         -0.5575876756        1.2425699227       -4.6042320531
 H         -1.7683133012        1.8744090303       -2.5011315874
 C         -0.3097269278        3.0444446153        2.0731921081
 N         -0.8038999142        1.7847569111        2.5884169537
 C         -2.0356503671        1.2860577038        2.2836743567
 O         -2.4926052365        0.2980286586        2.8519291640
 N         -2.7351284687        1.9884784042        1.3379814299
 H         -2.1686614944        2.4444166836        0.6210573517
 C         -3.9538231653        1.4074326649        0.7950359564
 C         -3.5215604751        0.2283154200       -0.0814765009
 O         -3.2180177215        0.3453833851       -1.2638354206
 N         -3.4455050853       -0.9237313352        0.5925951679
 H         -3.4461437692       -0.8648538537        1.6081182263
 C         -2.9742344660       -2.1555039656        0.0032614829
 C         -3.8512192372       -3.3063989890        0.5222797883
 C         -5.2883878678       -3.0137544543        0.1947498494
 C         -5.7996157935       -3.3215526538       -1.0593360994
 C         -7.0986867097       -2.9839173818       -1.3935712192
 C         -7.9028018690       -2.3272670059       -0.4777659855
 C         -7.4025014208       -2.0174601512        0.7749517469
 C         -6.1037073706       -2.3584243411        1.1080969403
 H         -5.7200523477       -2.1152580732        2.0884909107
 H         -8.0260185509       -1.5072352853        1.4947740433
 H         -8.9156885746       -2.0590543770       -0.7394144828
 H         -7.4838265562       -3.2304035503       -2.3722817131
 H         -5.1737960097       -3.8295441666       -1.7795185997
 H         -3.7172830108       -3.3951374020        1.6018328394
 H         -3.5320655920       -4.2373775893        0.0519962913
 C         -1.4893127207       -2.3863770395        0.3082018419
 H         -1.3481360162       -2.4819169930        1.3858160113
 H         -1.1857360865       -3.3136070119       -0.1762869510
 C         -0.6081553823       -1.2305015562       -0.1991780575
 C          0.8835560877       -1.5218706043        0.0478738305
 N          1.6647381423       -0.3598398733       -0.3259623884
 C          2.6545923356        0.1005540130        0.4599882024
 O          2.7336277244       -0.0563552992        1.6552091694
 O          3.5332030486        0.8429434998       -0.2622153154
 C          4.5941415091        1.4405011256        0.4773599212
 C          5.7127802366        0.4895866860        0.7357184708
 C          5.8349777441       -0.4061396323        1.7564409774
 N          6.9707194730       -1.1372490317        1.7543449364
 C          7.7228440850       -0.8396151088        0.7614740336
 S          7.0998026116        0.3872943713       -0.2951832399
 H          8.6753020864       -1.2931656150        0.5718167799
 H          5.1030750160       -0.5564910582        2.5285600399
 H          4.9296728144        2.2823095557       -0.1317950916
 H          4.2022331535        1.7925197427        1.4396262011
 H          1.7347140194       -0.1750273646       -1.3160042854
 C          1.3772950003       -2.7434637990       -0.7516519991
 C          2.8789746531       -2.7923852638       -0.7832206713
 C          3.5783894996       -2.3514041991       -1.8991715078
 C          4.9612717451       -2.3883266265       -1.9258654391
 C          5.6612625955       -2.8666019774       -0.8325891924
 C          4.9752607631       -3.2863131609        0.2946013008
 C          3.5931264394       -3.2471719033        0.3184493129
 H          3.0606239116       -3.5767482935        1.1988221968
 H          5.5217048817       -3.6409353543        1.1555730395
 H          6.7403676629       -2.9112805134       -0.8555379841
 H          5.4923543995       -2.0460672493       -2.8023769939
 H          3.0355200253       -1.9875166812       -2.7608143522
 H          0.9919205916       -3.6514380427       -0.2874221969
 H          0.9792995581       -2.6646181008       -1.7645316987
 H          1.0497881314       -1.6688423031        1.1190096263
 O         -0.7857701489       -0.9874223655       -1.5734195091
 H         -1.6498478575       -0.5439244291       -1.6889269995
 H         -0.8556398171       -0.3218615042        0.3716204635
 H         -3.1141961572       -2.0617001368       -1.0797536171
 C         -4.7447802681        2.4435177687       -0.0066336138
 C         -5.0385265818        3.6751639420        0.8436318141
 H         -4.1168014728        4.1192054506        1.2093344232
 H         -5.6518442598        3.4033222469        1.6999276192
 H         -5.5744208160        4.4177989178        0.2574955415
 C         -6.0409418324        1.8119212892       -0.5097748505
 H         -6.6549619751        1.4839169139        0.3266701988
 H         -6.6088171048        2.5321113041       -1.0936271548
 H         -5.8291325511        0.9502176403       -1.1375864354
 H         -4.1345051059        2.7330166122       -0.8685681298
 H         -4.5538873247        1.0397909750        1.6339263201
 C          0.0719057248        1.0326486969        3.4589761812
 H         -0.4684164081        0.1481092746        3.7886790141
 H          0.9782762376        0.7275516092        2.9303378896
 H          0.3447787875        1.6285326416        4.3330268462
 H          0.4928588350        3.3839871481        2.7312553529
 H         -1.1204530741        3.7826758568        2.1016372338
 H          2.3485462708        3.4226736767        0.8426157829
