44
Energy =
C     1.9042608    0.4381396    0.0000000 
C     3.1868348   -0.3781399    0.0000000 
C     4.4498398    0.4681624    0.0000000 
C     5.7324895   -0.3477836    0.0000000 
C     6.9966558    0.4975089    0.0000000 
C     8.2723697   -0.3275451    0.0000000 
H     8.3265050   -0.9712475   -0.8788699 
H     8.3265050   -0.9712475    0.8788699 
H     9.1599995    0.3047286    0.0000000 
H     6.9876228    1.1571368   -0.8723445 
H     6.9876228    1.1571368    0.8723445 
H     5.7410836   -1.0085381    0.8726597 
H     5.7410836   -1.0085381   -0.8726597 
H     4.4419634    1.1285982   -0.8727273 
H     4.4419634    1.1285982    0.8727273 
H     3.1946183   -1.0385589    0.8726892 
H     3.1946183   -1.0385589   -0.8726892 
C     0.6412807   -0.4081304    0.0000000 
C    -0.6412807    0.4081304    0.0000000 
C    -1.9042608   -0.4381396    0.0000000 
C    -3.1868348    0.3781399    0.0000000 
C    -4.4498398   -0.4681624    0.0000000 
C    -5.7324895    0.3477836    0.0000000 
H    -5.7410836    1.0085381    0.8726597 
H    -5.7410836    1.0085381   -0.8726597 
C    -6.9966558   -0.4975089    0.0000000 
H    -4.4419634   -1.1285982   -0.8727273 
H    -4.4419634   -1.1285982    0.8727273 
H    -3.1946183    1.0385589    0.8726892 
H    -3.1946183    1.0385589   -0.8726892 
H    -1.8964602   -1.0985581   -0.8727088 
H    -1.8964602   -1.0985581    0.8727088 
H    -0.6490596    1.0685675   -0.8726989 
H    -0.6490596    1.0685675    0.8726989 
H     0.6490596   -1.0685675   -0.8726989 
H     0.6490596   -1.0685675    0.8726989 
H     1.8964602    1.0985581   -0.8727088 
H     1.8964602    1.0985581    0.8727088 
C    -8.2723697    0.3275451    0.0000000 
H    -6.9876228   -1.1571368   -0.8723445 
H    -6.9876228   -1.1571368    0.8723445 
H    -8.3265050    0.9712475    0.8788699 
H    -8.3265050    0.9712475   -0.8788699 
H    -9.1599995   -0.3047286    0.0000000 
