9
Energy =
O    -1.9299862   -0.5604481    0.0000000 
C    -0.8559774    0.2668496    0.0000000 
O    -0.9615294    1.4680128    0.0000000 
C     0.4105430   -0.4998902    0.0000000 
C     1.5830949    0.1228570    0.0000000 
H     2.5148666   -0.4268926    0.0000000 
H     1.6292761    1.2048770    0.0000000 
H     0.3288779   -1.5789835    0.0000000 
H    -2.7191656    0.0036181    0.0000000 
