   48
FINAL HEAT OF FORMATION =    -8.230583
Cl     4.696493     1.941788     0.247397
 N    -2.209563     1.572392    -0.097982
 N    -1.253446    -1.302599    -0.301593
 N     2.731540    -2.713379    -0.039641
 C    -3.717243    -1.441058    -0.647530
 C    -4.139124    -0.113159     0.016398
 C    -2.452630    -2.118998    -0.090526
 C    -3.535332     1.150000    -0.616607
 C    -2.593451    -2.501152     1.376800
 C    -1.675090     2.713804    -0.892297
 C    -2.119779     1.816022     1.380475
 C     0.060994    -1.750881    -0.201237
 C     1.155741    -0.847261    -0.090616
 C    -1.254887     2.330578    -2.298947
 C    -3.101844     2.845731     1.897078
 C     0.375966    -3.093186    -0.214579
 C     2.468907    -1.378886    -0.018789
 C     0.980084     0.549556    -0.038862
 C     1.694861    -3.505247    -0.132297
 C     3.546724    -0.480697     0.084227
 C     2.046312     1.391666     0.063050
 C     3.343969     0.874100     0.122274
 H    -3.588571    -1.274147    -1.722908
 H    -4.542045    -2.161501    -0.567754
 H    -3.926643    -0.138831     1.088385
 H    -5.234725    -0.031526    -0.037202
 H    -2.294076    -3.040109    -0.675421
 H    -3.455719     1.002591    -1.696122
 H    -4.212196     2.001369    -0.489108
 H    -1.492772    -0.306625    -0.223911
 H    -3.481556    -3.110173     1.550328
 H    -2.668296    -1.614220     2.003741
 H    -1.725268    -3.061772     1.724730
 H    -2.426470     3.509911    -0.911507
 H    -0.819224     3.130340    -0.350147
 H    -2.254376     0.859122     1.893107
 H    -1.092839     2.118264     1.610884
 H    -2.110022     2.058283    -2.918285
 H    -0.738048     3.147827    -2.806718
 H    -0.581305     1.472662    -2.287854
 H    -2.982050     3.021923     2.968321
 H    -2.973099     3.803882     1.391953
 H    -4.132956     2.529520     1.733838
 H    -0.405736    -3.825898    -0.299105
 H    -0.015269     0.949990    -0.069237
 H     1.910192    -4.562523    -0.147926
 H     4.547371    -0.868641     0.135873
 H     1.909748     2.458866     0.102314
