20
Energy =
C    -0.4428528   -0.0169049    0.0000000 
C    -0.5287633    0.8604190   -1.2474356 
H     0.2543550    1.6164135   -1.2674343 
H    -0.4400250    0.2630217   -2.1555689 
H    -1.4849585    1.3825166   -1.2868917 
C    -0.5287633    0.8604190    1.2474356 
H     0.2543550    1.6164135    1.2674343 
H    -0.4400250    0.2630217    2.1555689 
H    -1.4849585    1.3825166    1.2868917 
C    -1.6192045   -0.9928993    0.0000000 
H    -1.5978076   -1.6355018   -0.8807156 
H    -1.5978076   -1.6355018    0.8807156 
H    -2.5708749   -0.4610426    0.0000000 
C     0.8569154   -0.8404226    0.0000000 
C     2.1621763   -0.0623238    0.0000000 
H     2.2605439    0.5723539    0.8792610 
H     2.2605439    0.5723539   -0.8792610 
H     3.0115785   -0.7448112    0.0000000 
H     0.8377865   -1.5000206    0.8717919 
H     0.8377865   -1.5000206   -0.8717919 
