   65
FINAL HEAT OF FORMATION =   -11.373021
 P    -0.816217     0.232717     1.854445
 O    -1.811658     0.078822     3.002609
 N    -0.556401     1.907001     1.530443
 H     0.052247     1.874006     0.706832
 C    -1.806579     2.595473     1.295680
 C    -2.557497     2.067594     0.088789
 O    -2.044511     2.144137    -1.001716
 O    -3.798303     1.570030     0.351693
 C    -4.458040     1.075557    -0.815944
 C    -3.735110    -0.139266    -1.375604
 H    -2.738319     0.142310    -1.712905
 H    -3.612596    -0.895727    -0.601866
 H    -4.262819    -0.580809    -2.220704
 C    -4.667017     2.166650    -1.857631
 H    -5.188108     3.020965    -1.426938
 H    -3.702494     2.519078    -2.221581
 H    -5.237975     1.805118    -2.712713
 H    -5.446783     0.753883    -0.441481
 C    -1.573469     4.090326     1.149621
 H    -2.513657     4.634127     1.056995
 H    -0.984818     4.282738     0.253002
 H    -1.022956     4.484618     2.003604
 H    -2.431584     2.396885     2.187185
 O    -1.313914    -0.487755     0.495233
 C    -1.503192    -1.844286     0.670297
 C    -1.626207    -2.651215    -0.474763
 C    -1.782719    -4.010207    -0.361305
 C    -1.823344    -4.603333     0.884718
 C    -1.713172    -3.833553     2.025336
 C    -1.559478    -2.472285     1.927982
 H    -1.503351    -1.867045     2.815787
 H    -1.754169    -4.300263     2.995512
 H    -1.944337    -5.670801     0.967366
 H    -1.868463    -4.615405    -1.248421
 H    -1.570532    -2.178199    -1.439687
 O     0.645111    -0.367298     2.255345
 C     1.253527    -0.973727     1.147161
 C     2.781117    -0.831700     1.104878
 O     3.263261    -1.438680    -0.103639
 C     3.535234    -0.403814    -1.049559
 N     2.322807    -0.180563    -1.876826
 C     2.059517    -1.166735    -2.812357
 C     0.831607    -1.391135    -3.313749
 C    -0.279176    -0.602925    -2.870862
 O    -1.432456    -0.855757    -3.192506
 N     0.029708     0.437532    -2.017459
 C     1.275910     0.664561    -1.471233
 O     1.392454     1.530765    -0.623683
 H    -0.724018     1.029358    -1.677305
 H     0.645975    -2.187514    -4.011079
 H     2.877095    -1.808516    -3.094093
 C     4.090330     0.784204    -0.200143
 F     5.367893     0.498281     0.094020
 C     4.023312     2.156901    -0.860166
 H     3.004351     2.438921    -1.111576
 H     4.617361     2.160786    -1.771829
 H     4.431249     2.907743    -0.186163
 C     3.279666     0.645596     1.121644
 O     4.092418     0.928849     2.230465
 H     4.972168     0.529117     2.079089
 H     2.432717     1.342516     1.143605
 H     4.340509    -0.768006    -1.699030
 H     3.236650    -1.368392     1.949039
 H     0.823455    -0.512844     0.248447
 H     0.970797    -2.037578     1.132991
