23
Energy =
C     0.0000000   -0.0000000    0.5600549 
C     0.7763370    0.9724844    1.4589449 
H     1.3188678    1.7178192    0.8750911 
H     0.0949579    1.5086440    2.1238849 
H     1.4991576    0.4385728    2.0807759 
C    -0.7763370   -0.9724844    1.4589449 
H    -1.3188678   -1.7178192    0.8750911 
H    -0.0949579   -1.5086440    2.1238849 
H    -1.4991576   -0.4385728    2.0807759 
C    -0.9792364    0.8244683   -0.3045486 
C    -1.8163789    0.0417255   -1.3141175 
H    -1.1933016   -0.4610260   -2.0559510 
H    -2.4879451    0.7127915   -1.8532491 
H    -2.4334879   -0.7172198   -0.8303177 
H    -1.6495522    1.3624130    0.3738195 
H    -0.4133823    1.5958534   -0.8343599 
C     0.9792364   -0.8244683   -0.3045486 
C     1.8163789   -0.0417255   -1.3141175 
H     2.4879451   -0.7127915   -1.8532491 
H     2.4334879    0.7172198   -0.8303177 
H     1.1933016    0.4610260   -2.0559510 
H     1.6495522   -1.3624130    0.3738195 
H     0.4133823   -1.5958534   -0.8343599 
