17
Energy =
C    -0.0000000    0.0000000    0.0000000 
C     0.8855820   -0.8855820    0.8855820 
H     0.2789951   -1.5282553    1.5282553 
H     1.5282553   -0.2789951    1.5282553 
H     1.5282553   -1.5282553    0.2789951 
C    -0.8855820    0.8855820    0.8855820 
H    -0.2789951    1.5282553    1.5282553 
H    -1.5282553    1.5282553    0.2789951 
H    -1.5282553    0.2789951    1.5282553 
C     0.8855820    0.8855820   -0.8855820 
H     1.5282553    0.2789951   -1.5282553 
H     0.2789951    1.5282553   -1.5282553 
H     1.5282553    1.5282553   -0.2789951 
C    -0.8855820   -0.8855820   -0.8855820 
H    -1.5282553   -1.5282553   -0.2789951 
H    -0.2789951   -1.5282553   -1.5282553 
H    -1.5282553   -0.2789951   -1.5282553 
