17
Energy =
C     0.0000000   -0.0000000    0.0000000 
C     0.8818330   -0.8818330    0.8818330 
H     0.2786963   -1.5241048    1.5241048 
H     1.5241048   -0.2786963    1.5241048 
H     1.5241048   -1.5241048    0.2786963 
C    -0.8818330    0.8818330    0.8818330 
H    -0.2786963    1.5241048    1.5241048 
H    -1.5241048    1.5241048    0.2786963 
H    -1.5241048    0.2786963    1.5241048 
C     0.8818330    0.8818330   -0.8818330 
H     1.5241048    0.2786963   -1.5241048 
H     0.2786963    1.5241048   -1.5241048 
H     1.5241048    1.5241048   -0.2786963 
C    -0.8818330   -0.8818330   -0.8818330 
H    -1.5241048   -1.5241048   -0.2786963 
H    -0.2786963   -1.5241048   -1.5241048 
H    -1.5241048   -0.2786963   -1.5241048 
