23
Energy =
C    -3.4735759   -0.2272404   -0.1448346 
C    -2.2071132    0.5261912    0.2521321 
C    -0.9274085   -0.1628544   -0.2178348 
C     0.3402488    0.5874336    0.1840804 
H     0.2599448    1.6229514   -0.1650548 
H     0.3989590    0.6414494    1.2783227 
C     1.6490016   -0.0064808   -0.3519776 
C     2.8260384    0.9163777   -0.0325708 
H     2.9570946    1.0157848    1.0490192 
H     2.6691456    1.9171826   -0.4413341 
H     3.7596716    0.5270544   -0.4447477 
C     1.9113601   -1.4148885    0.1847225 
H     1.1270154   -2.1162494   -0.1025232 
H     1.9681216   -1.4056043    1.2775635 
H     2.8586590   -1.8063124   -0.1926647 
H     1.5594417   -0.0725231   -1.4436296 
H    -0.9549074   -0.2681855   -1.3090066 
H    -0.9060807   -1.1799712    0.1849693 
H    -2.2405602    1.5414530   -0.1572205 
H    -2.1743345    0.6400159    1.3409925 
H    -4.3721446    0.2872115    0.2018530 
H    -3.4819571   -1.2341048    0.2804999 
H    -3.5466201   -0.3286906   -1.2307561 
