23
Energy =
C    -3.4615197   -0.2269693   -0.1387266 
C    -2.2001674    0.5298858    0.2403785 
C    -0.9235753   -0.1680139   -0.2039287 
C     0.3393692    0.5836764    0.1854765 
H     0.2539467    1.6161828   -0.1657086 
H     0.4028914    0.6450827    1.2769611 
C     1.6442728   -0.0024271   -0.3512937 
C     2.8156465    0.9134592   -0.0215163 
H     2.9487816    0.9996569    1.0583225 
H     2.6604328    1.9179485   -0.4154738 
H     3.7483141    0.5328956   -0.4378260 
C     1.9045308   -1.4112896    0.1645837 
H     1.1300476   -2.1117717   -0.1418637 
H     1.9479163   -1.4208497    1.2554794 
H     2.8555936   -1.7944934   -0.2049048 
H     1.5570473   -0.0547022   -1.4425346 
H    -0.9450981   -0.2998679   -1.2903801 
H    -0.9073705   -1.1742613    0.2200136 
H    -2.2308812    1.5331034   -0.1930986 
H    -2.1712870    0.6738715    1.3238538 
H    -4.3587698    0.2966841    0.1900324 
H    -3.4764725   -1.2202438    0.3112367 
H    -3.5336491   -0.3575571   -1.2190828 
