  33
        -45.17191738
 O          3.8448040909       -0.7480436961       -1.2159114351
 C          3.4457060476       -0.3917239449        0.0126203330
 O          3.7246260077       -1.0296393498        0.9913747322
 C          2.5897040561        0.8556420385       -0.0227714590
 C          1.1530640587        0.3974779600       -0.1654402329
 C          0.5886130191       -0.4601844659        0.7711812692
 C         -0.7262419786       -0.8650235340        0.6469014673
 C         -1.5129839369       -0.4266881751       -0.4122898289
 C         -0.9416698974        0.4239382508       -1.3487573264
 C          0.3760781006        0.8288203152       -1.2304035244
 H          0.8016701319        1.4888918602       -1.9728269111
 H         -1.5322848645        0.7730787452       -2.1837535610
 C         -2.9500529356       -0.8461812285       -0.5135426264
 H         -3.3189798972       -0.6714098436       -1.5262527466
 H         -3.0301999496       -1.9152600990       -0.3019549776
 C         -3.8399959679       -0.0807806168        0.4813248741
 C         -5.2594069702       -0.6414656253        0.4539261634
 H         -5.2633319859       -1.6983854682        0.7115968076
 H         -5.6926899329       -0.5286392274       -0.5379199213
 H         -5.8909309934       -0.1136531882        1.1650198183
 C         -3.8502069475        1.4112081887        0.1623299642
 H         -4.4646719709        1.9490556304        0.8809016136
 H         -4.2568549097        1.5836065849       -0.8322921558
 H         -2.8422249465        1.8179302051        0.1988577536
 H         -3.4267730059       -0.2180350063        1.4867369731
 H         -1.1487500096       -1.5370270844        1.3803048613
 H          1.1879069866       -0.8221329683        1.5931715120
 C          2.7871290142        1.6895008091        1.2432060401
 H          2.6342189780        1.0724143469        2.1240754105
 H          3.7967070153        2.0925218239        1.2771418317
 H          2.0772290183        2.5127218233        1.2598185119
 H          2.8683050922        1.4316624966       -0.9091047998
 H          4.3509210849       -1.5753696784       -1.1821379120
