   33
FINAL HEAT OF FORMATION =    -5.691594
 O     3.712571    -1.434061    -1.212556
 C     3.269917    -0.752958    -0.130345
 O     3.342375    -1.179710     1.001331
 C     2.649506     0.602903    -0.384778
 C     1.159338     0.579599    -0.140355
 C     0.621268    -0.171126     0.890202
 C    -0.734308    -0.166558     1.138555
 C    -1.589879     0.600014     0.363531
 C    -1.052365     1.355641    -0.665953
 C     0.304850     1.350271    -0.911527
 H     0.711667     1.947595    -1.709317
 H    -1.709118     1.949975    -1.277839
 C    -3.071053     0.576217     0.597758
 H    -3.275798     0.230366     1.615674
 H    -3.458065     1.599865     0.553253
 C    -3.834291    -0.316338    -0.402245
 C    -5.345077    -0.200115    -0.195409
 H    -5.895281    -0.802776    -0.919079
 H    -5.684503     0.831977    -0.291585
 H    -5.624075    -0.546266     0.799813
 C    -3.378939    -1.773403    -0.309222
 H    -3.903966    -2.403204    -1.028394
 H    -3.575748    -2.174807     0.684798
 H    -2.309175    -1.871730    -0.497444
 H    -3.595176     0.050621    -1.416160
 H    -1.138696    -0.766019     1.936005
 H     1.283291    -0.772340     1.489185
 C     3.342549     1.662885     0.459993
 H     3.222387     1.432931     1.518600
 H     4.412529     1.697841     0.252173
 H     2.924439     2.654369     0.282422
 H     2.811094     0.825673    -1.450397
 H     4.079086    -2.279186    -0.885398
