20
Energy =
C     0.0801429   -0.1818540    0.0000000 
C    -1.4053524   -0.5141808    0.0000000 
H    -1.6906046   -1.0955228    0.8743513 
H    -2.0036940    0.3993220    0.0000000 
H    -1.6906046   -1.0955228   -0.8743513 
C     0.4917632    0.5920147    1.2533773 
C     0.2992505   -0.1516683    2.5647487 
H    -0.7508320   -0.3370421    2.7837196 
H     0.7059964    0.4178145    3.3999008 
H     0.8072128   -1.1169345    2.5477520 
H    -0.0619154    1.5354209    1.2823545 
H     1.5448875    0.8677201    1.1562474 
C     0.4917632    0.5920147   -1.2533773 
C     0.2992505   -0.1516683   -2.5647487 
H    -0.7508320   -0.3370421   -2.7837196 
H     0.7059964    0.4178145   -3.3999008 
H     0.8072128   -1.1169345   -2.5477520 
H    -0.0619154    1.5354209   -1.2823545 
H     1.5448875    0.8677201   -1.1562474 
H     0.6373864   -1.1268921    0.0000000 
