22
Energy =
C     0.6632748    0.3110235    2.4871217 
C     0.8679465   -0.4588691    1.1980414 
N     0.4750521    0.2722311    0.0000000 
C     0.8679465   -0.4588691   -1.1980414 
C     0.6632748    0.3110235   -2.4871217 
C    -0.9125328    0.7249270    0.0000000 
C    -1.9930123   -0.3524396    0.0000000 
H    -0.3878252    0.4212370    2.7473577 
H     1.1439199   -0.2148494    3.3110315 
H     1.1025003    1.3050159    2.4154329 
H     0.3649120   -1.4383024    1.2751124 
H     1.9311180   -0.6820759    1.0924249 
H     0.3649120   -1.4383024   -1.2751124 
H     1.9311180   -0.6820759   -1.0924249 
H    -0.3878252    0.4212370   -2.7473577 
H     1.1439199   -0.2148494   -3.3110315 
H     1.1025003    1.3050159   -2.4154329 
H    -1.0491126    1.3718616    0.8649560 
H    -1.0491126    1.3718616   -0.8649560 
H    -1.9316839   -0.9924356    0.8785407 
H    -2.9804492    0.1088371    0.0000000 
H    -1.9316839   -0.9924356   -0.8785407 
