26
Energy =
C    -4.4612013   -0.2653991    0.0000000 
C    -3.1662823    0.5290411    0.0000000 
C    -1.9229418   -0.3467719    0.0000000 
C    -0.6211062    0.4384154    0.0000000 
C     0.6211062   -0.4384154    0.0000000 
C     1.9229418    0.3467719    0.0000000 
C     3.1662823   -0.5290411    0.0000000 
C     4.4612013    0.2653991    0.0000000 
H     4.5303993    0.9074909    0.8787950 
H     5.3334612   -0.3876662    0.0000000 
H     4.5303993    0.9074909   -0.8787950 
H     3.1411712   -1.1877509    0.8722311 
H     3.1411712   -1.1877509   -0.8722311 
H     1.9474049    1.0065662    0.8725376 
H     1.9474049    1.0065662   -0.8725376 
H     0.5973162   -1.0978989    0.8725927 
H     0.5973162   -1.0978989   -0.8725927 
H    -0.5973162    1.0978989   -0.8725927 
H    -0.5973162    1.0978989    0.8725927 
H    -1.9474049   -1.0065662    0.8725376 
H    -1.9474049   -1.0065662   -0.8725376 
H    -3.1411712    1.1877509    0.8722311 
H    -3.1411712    1.1877509   -0.8722311 
H    -4.5303993   -0.9074909    0.8787950 
H    -5.3334612    0.3876662    0.0000000 
H    -4.5303993   -0.9074909   -0.8787950 
