21
Energy =
O     0.0000000    0.0000000   -1.0307753 
C     0.7424668   -0.9481163   -0.2747115 
C     1.8613064   -0.3603384    0.5699479 
C     2.8540743    0.4650422   -0.2289528 
H     2.3633354    1.3029262   -0.7199441 
H     3.6431848    0.8626582    0.4080300 
H     3.3253962   -0.1347142   -1.0081627 
H     2.3705704   -1.1977495    1.0538990 
H     1.4443168    0.2370751    1.3834843 
H     0.0790449   -1.5495020    0.3569663 
H     1.1651365   -1.6195010   -1.0230228 
C    -0.7424668    0.9481163   -0.2747115 
C    -1.8613064    0.3603384    0.5699479 
C    -2.8540743   -0.4650422   -0.2289528 
H    -3.6431848   -0.8626582    0.4080300 
H    -2.3633354   -1.3029262   -0.7199441 
H    -3.3253962    0.1347142   -1.0081627 
H    -1.4443168   -0.2370751    1.3834843 
H    -2.3705704    1.1977495    1.0538990 
H    -1.1651365    1.6195010   -1.0230228 
H    -0.0790449    1.5495020    0.3569663 
