8
Energy =
C     0.0000000    0.0000000   -0.7592423 
C     0.0000000    0.0000000    0.7592423 
H    -0.8782569    0.5070618    1.1581580 
H     0.0000000   -1.0141237    1.1581580 
H     0.8782569    0.5070618    1.1581580 
H    -0.8782569   -0.5070618   -1.1581580 
H     0.0000000    1.0141237   -1.1581580 
H     0.8782569   -0.5070618   -1.1581580 
