13
Energy =
C    -0.6614698    0.6203909   -0.1500784 
C    -1.2253683   -0.7546391   -0.4967769 
H    -1.4932428   -1.3122331    0.4033590 
H    -2.1205775   -0.6578740   -1.1120144 
H    -0.5027934   -1.3506053   -1.0574430 
C     0.5633679    0.5593027    0.7507419 
N     1.6957165   -0.1739487    0.0708362 
O     2.1558654   -1.1512388    0.6339715 
O     2.0701397    0.2630056   -1.0035579 
H     0.3786340    0.0209201    1.6763975 
H     0.9536774    1.5541366    0.9628268 
H    -1.4117138    1.2143102    0.3787151 
H    -0.4022353    1.1684729   -1.0569773 
