19
Energy =
S    -2.0304388   -0.2384897   -0.4346436 
C    -1.0079550   -1.4123842    0.5119113 
C     0.3543990   -1.7577084   -0.0943018 
C     1.1398632   -0.5900897   -0.7025458 
C     1.1665562    0.7131532    0.1131699 
C     0.0488837    1.7041701   -0.2344312 
C    -1.3575167    1.3256474    0.2173794 
H    -2.0685126    2.0896145   -0.1023308 
H    -1.4104648    1.2733933    1.3082996 
H     0.2838167    2.6741716    0.2189239 
H     0.0450480    1.8604324   -1.3171145 
H     2.1172889    1.2188616   -0.0732728 
H     1.1528816    0.4932796    1.1866195 
H     2.1644423   -0.9348173   -0.8650580 
H     0.7345576   -0.3682927   -1.6925120 
H     0.2199345   -2.5180097   -0.8681248 
H     0.9514621   -2.2268584    0.6960426 
H    -1.6088626   -2.3162711    0.6197984 
H    -0.8953830   -0.9898025    1.5121906 
