26
Energy =
C    -4.4762402   -0.2669717    0.0000000 
C    -3.1762434    0.5330560    0.0000000 
C    -1.9292819   -0.3487052    0.0000000 
C    -0.6229917    0.4411755    0.0000000 
C     0.6229917   -0.4411755    0.0000000 
C     1.9292819    0.3487052    0.0000000 
C     3.1762434   -0.5330560    0.0000000 
C     4.4762402    0.2669717    0.0000000 
H     4.5417022    0.9098966    0.8815267 
H     5.3502184   -0.3875169    0.0000000 
H     4.5417022    0.9098966   -0.8815267 
H     3.1508669   -1.1911689    0.8750457 
H     3.1508669   -1.1911689   -0.8750457 
H     1.9539339    1.0080456    0.8754192 
H     1.9539339    1.0080456   -0.8754192 
H     0.5990896   -1.1002915    0.8753991 
H     0.5990896   -1.1002915   -0.8753991 
H    -0.5990896    1.1002915   -0.8753991 
H    -0.5990896    1.1002915    0.8753991 
H    -1.9539339   -1.0080456    0.8754192 
H    -1.9539339   -1.0080456   -0.8754192 
H    -3.1508669    1.1911689    0.8750457 
H    -3.1508669    1.1911689   -0.8750457 
H    -4.5417022   -0.9098966    0.8815267 
H    -5.3502184    0.3875169    0.0000000 
H    -4.5417022   -0.9098966   -0.8815267 
