24
Energy =
C     3.6006642   -0.0649295   -0.2838761 
C     2.3398910   -0.8411953    0.0802705 
C     1.4304507   -0.1218441    1.0742787 
S     0.7614355    1.4845854    0.5248092 
C    -0.2098906    0.9994727   -0.9425572 
C    -1.3565828    0.0237210   -0.6917945 
C    -2.4428238    0.5497271    0.2416372 
C    -3.5672464   -0.4575235    0.4634406 
H    -4.3326626   -0.0592419    1.1322735 
H    -4.0546144   -0.7241610   -0.4781255 
H    -3.1859571   -1.3802893    0.9088127 
H    -2.8532218    1.4760567   -0.1748666 
H    -1.9915399    0.8227898    1.1983356 
H    -1.8006445   -0.2244935   -1.6630152 
H    -0.9607982   -0.9180350   -0.2986428 
H     0.4693428    0.6065191   -1.7005728 
H    -0.5946843    1.9485023   -1.3230940 
H     0.6018237   -0.7661743    1.3722042 
H     1.9832718    0.1258959    1.9835503 
H     1.7752998   -1.0799364   -0.8253461 
H     2.6139284   -1.8051127    0.5226510 
H     3.3519100    0.8955954   -0.7366341 
H     4.2052991    0.1366148    0.6041874 
H     4.2173494   -0.6265437   -0.9879261 
