18
Energy =
C    -0.8745265    0.8625706    0.1977055 
C     0.1504483   -0.1458948   -0.2898555 
H    -0.9253509    0.8383666    1.2894518 
C    -2.2684377    0.6719057   -0.3713166 
S    -3.0968509   -0.8936603    0.1159365 
H    -3.1727716   -0.6067042    1.4328568 
H    -2.2364078    0.6305622   -1.4595539 
H    -2.9178096    1.5020706   -0.1025689 
H    -0.5440302    1.8727057   -0.0651082 
H     0.2230371   -0.0844382   -1.3801451 
C     1.5298014    0.0532867    0.3178950 
H    -0.2050142   -1.1532666   -0.0674021 
C     2.5523955   -0.9523816   -0.1828007 
H     1.8793838    1.0672381    0.1043859 
H     1.4543466   -0.0140742    1.4065370 
H     2.6767190   -0.8839041   -1.2640022 
H     3.5293140   -0.7911076    0.2718671 
H     2.2457536   -1.9732745    0.0461175 
