9
Energy =
C     0.8806995    0.3530183   -0.1619407 
H     1.8411547   -0.1650734   -0.1418211 
H     0.8702083    1.0615223    0.6653238 
C    -0.2572956   -0.6368192   -0.0502579 
S    -1.9236440    0.1255215   -0.1568661 
H    -1.7978807    0.9026427    0.9398787 
H    -0.1926817   -1.2158254    0.8686153 
H    -0.2377180   -1.3462746   -0.8756751 
H     0.8171573    0.9212878   -1.0872569 
