   51
FINAL HEAT OF FORMATION =    -9.958514
 F    -5.977110     1.332607     1.793136
 C    -4.972971     0.757375     1.083154
 C    -4.507609     1.353745    -0.076324
 C    -3.486730     0.778303    -0.795691
 C    -2.911325    -0.409665    -0.363564
 C    -3.381186    -1.005374     0.799030
 C    -4.402423    -0.427682     1.514552
 H    -4.774063    -0.881827     2.415891
 H    -2.923054    -1.925141     1.121186
 N    -1.843869    -1.019652    -1.070238
 C    -1.021957    -2.110462    -0.782600
 O    -1.043065    -2.922261     0.115076
 C    -0.101718    -1.821526    -1.944829
 C     1.380129    -1.596612    -1.602720
 C     2.174931    -2.829721    -1.110453
 H     1.630532    -3.747946    -1.353787
 H     3.116924    -2.898413    -1.668967
 C     2.496680    -2.819510     0.409818
 C     2.757004    -1.428654     0.950055
 C     1.961858    -0.902397     1.951893
 C     2.134850     0.395797     2.381901
 C     3.094908     1.203311     1.800284
 C     3.920211     0.668529     0.828772
 C     3.753429    -0.633144     0.408127
 H     4.384645    -1.034727    -0.365678
 H     4.673718     1.298353     0.389993
 F     3.132475     2.534555     2.073793
 H     1.510323     0.809811     3.153515
 H     1.195672    -1.521993     2.384793
 H     3.411022    -3.410211     0.589144
 O     1.505390    -3.516211     1.162348
 H     0.602252    -3.308655     0.820448
 H     1.438000    -0.810785    -0.845395
 H     1.866720    -1.163105    -2.485482
 H    -0.243640    -2.556159    -2.751907
 C    -0.947020    -0.520220    -2.145296
 C    -0.222138     0.752677    -1.780052
 C     0.500201     1.466609    -2.725982
 C     1.352673     2.476474    -2.342126
 C     1.527224     2.785458    -0.992593
 C     0.745093     2.113436    -0.053793
 C    -0.107765     1.113295    -0.446075
 H    -0.658413     0.556844     0.291405
 H     0.848864     2.366621     0.985924
 O     2.494763     3.690041    -0.585583
 H     2.721078     3.503824     0.351621
 H     1.942259     3.007954    -3.067438
 H     0.421698     1.190235    -3.763314
 H    -1.472037    -0.459863    -3.112138
 H    -3.120073     1.241793    -1.694581
 H    -4.961037     2.274241    -0.398576
