20
Energy =
C     0.2909746    0.4871718   -0.1444372 
C     1.4802734   -0.3492800    0.3244338 
C     2.8198017    0.2286778   -0.1260173 
H     2.8752354    0.2862893   -1.2161346 
H     2.9635396    1.2394243    0.2643466 
H     3.6562434   -0.3833417    0.2174465 
H     1.3873347   -1.3725530   -0.0488424 
H     1.4605826   -0.4193402    1.4175043 
H     0.2760904    0.5130591   -1.2412889 
H     0.4434452    1.5227587    0.1798278 
C    -1.0793910    0.0157781    0.3582014 
C    -1.4371564   -1.3815967   -0.1522848 
H    -1.4569949   -1.3974417   -1.2462786 
H    -0.7219830   -2.1351897    0.1796331 
H    -2.4249306   -1.6848248    0.2016387 
C    -2.1658508    1.0209675   -0.0274988 
H    -2.2499170    1.1005205   -1.1153355 
H    -3.1416824    0.7187809    0.3591244 
H    -1.9424057    2.0166329    0.3622688 
H    -1.0332093   -0.0264933    1.4536929 
