20
Energy =
C     0.2895895    0.4837830   -0.1454382 
C     1.4753540   -0.3550634    0.3058634 
C     2.8099293    0.2333207   -0.1203197 
H     2.8729101    0.3220395   -1.2054867 
H     2.9538655    1.2307217    0.2966664 
H     3.6449618   -0.3848722    0.2081430 
H     1.3881913   -1.3679351   -0.0907358 
H     1.4500576   -0.4544025    1.3947949 
H     0.2691929    0.5220769   -1.2398242 
H     0.4468291    1.5150288    0.1844045 
C    -1.0759598    0.0182072    0.3573011 
C    -1.4330371   -1.3775599   -0.1361979 
H    -1.4397794   -1.4108940   -1.2274435 
H    -0.7298169   -2.1309628    0.2134882 
H    -2.4243741   -1.6728210    0.2072327 
C    -2.1569673    1.0171867   -0.0342050 
H    -2.2462725    1.0866886   -1.1197317 
H    -3.1309890    0.7236858    0.3571225 
H    -1.9335918    2.0154129    0.3424699 
H    -1.0300931   -0.0136410    1.4518962 
