23
Energy =
C     0.0000000    0.0000000    0.5137108 
C     0.0000000   -1.2769811   -0.3228369 
C     0.0000000   -2.5549147    0.5133791 
C     0.0000000   -3.8252160   -0.3330446 
H    -0.8815229   -3.8674315   -0.9779026 
H     0.8815229   -3.8674315   -0.9779026 
H     0.0000000   -4.7222225    0.2895149 
H    -0.8750505   -2.5533019    1.1719705 
H     0.8750505   -2.5533019    1.1719705 
H    -0.8754117   -1.2778117   -0.9826229 
H     0.8754117   -1.2778117   -0.9826229 
C     0.0000000    1.2769811   -0.3228369 
C     0.0000000    2.5549147    0.5133791 
C     0.0000000    3.8252160   -0.3330446 
H     0.0000000    4.7222225    0.2895149 
H    -0.8815229    3.8674315   -0.9779026 
H     0.8815229    3.8674315   -0.9779026 
H    -0.8750505    2.5533019    1.1719705 
H     0.8750505    2.5533019    1.1719705 
H    -0.8754117    1.2778117   -0.9826229 
H     0.8754117    1.2778117   -0.9826229 
H    -0.8754390    0.0000000    1.1732420 
H     0.8754390    0.0000000    1.1732420 
