23
Energy =
C     0.0000000    0.0000000    0.5105773 
C     0.0000000   -1.2728741   -0.3208666 
C     0.0000000   -2.5468716    0.5097093 
C     0.0000000   -3.8124141   -0.3308062 
H    -0.8787914   -3.8584758   -0.9749567 
H     0.8787914   -3.8584758   -0.9749567 
H     0.0000000   -4.7075767    0.2905106 
H    -0.8722336   -2.5454844    1.1688918 
H     0.8722336   -2.5454844    1.1688918 
H    -0.8725239   -1.2735943   -0.9811034 
H     0.8725239   -1.2735943   -0.9811034 
C     0.0000000    1.2728741   -0.3208666 
C     0.0000000    2.5468716    0.5097093 
C     0.0000000    3.8124141   -0.3308062 
H     0.0000000    4.7075767    0.2905106 
H    -0.8787914    3.8584758   -0.9749567 
H     0.8787914    3.8584758   -0.9749567 
H    -0.8722336    2.5454844    1.1688918 
H     0.8722336    2.5454844    1.1688918 
H    -0.8725239    1.2735943   -0.9811034 
H     0.8725239    1.2735943   -0.9811034 
H    -0.8726290    0.0000000    1.1705009 
H     0.8726290    0.0000000    1.1705009 
