56
Energy =
C    -0.6388804    0.4118842    0.0000000 
C     0.6388804   -0.4118842    0.0000000 
C    -1.9068234   -0.4269241    0.0000000 
C     1.9068234    0.4269241    0.0000000 
C    -3.1845855    0.3968384    0.0000000 
C     3.1845855   -0.3968384    0.0000000 
C    -4.4525048   -0.4420202    0.0000000 
C     4.4525048    0.4420202    0.0000000 
C    -5.7302854    0.3817344    0.0000000 
C     5.7302854   -0.3817344    0.0000000 
C    -6.9982205   -0.4571952    0.0000000 
C     6.9982205    0.4571952    0.0000000 
C    -8.2760698    0.3662153    0.0000000 
C     8.2760698   -0.3662153    0.0000000 
C    -9.5451742   -0.4717080    0.0000000 
C     9.5451742    0.4717080    0.0000000 
C   -10.8159596    0.3607716    0.0000000 
C    10.8159596   -0.3607716    0.0000000 
H    -0.6427816    1.0723219    0.8727182 
H    -0.6427816    1.0723219   -0.8727182 
H     0.6427816   -1.0723219    0.8727182 
H     0.6427816   -1.0723219   -0.8727182 
H    -1.9029115   -1.0873715    0.8727107 
H    -1.9029115   -1.0873715   -0.8727107 
H     1.9029115    1.0873715   -0.8727107 
H     1.9029115    1.0873715    0.8727107 
H    -3.1884920    1.0572741    0.8727178 
H    -3.1884920    1.0572741   -0.8727178 
H     3.1884920   -1.0572741    0.8727178 
H     3.1884920   -1.0572741   -0.8727178 
H    -4.4485531   -1.1024637    0.8727111 
H    -4.4485531   -1.1024637   -0.8727111 
H     4.4485531    1.1024637   -0.8727111 
H     4.4485531    1.1024637    0.8727111 
H    -5.7342292    1.0421631    0.8727047 
H    -5.7342292    1.0421631   -0.8727047 
H     5.7342292   -1.0421631   -0.8727047 
H     5.7342292   -1.0421631    0.8727047 
H    -6.9941618   -1.1176280   -0.8727503 
H    -6.9941618   -1.1176280    0.8727503 
H     6.9941618    1.1176280   -0.8727503 
H     6.9941618    1.1176280    0.8727503 
H    -8.2808737    1.0269742    0.8726801 
H    -8.2808737    1.0269742   -0.8726801 
H     8.2808737   -1.0269742    0.8726801 
H     8.2808737   -1.0269742   -0.8726801 
H    -9.5399289   -1.1313713   -0.8723476 
H    -9.5399289   -1.1313713    0.8723476 
H     9.5399289    1.1313713    0.8723476 
H     9.5399289    1.1313713   -0.8723476 
H   -10.8664551    1.0048653    0.8788034 
H   -10.8664551    1.0048653   -0.8788034 
H   -11.7074578   -0.2660643    0.0000000 
H    10.8664551   -1.0048653   -0.8788034 
H    11.7074578    0.2660643    0.0000000 
H    10.8664551   -1.0048653    0.8788034 
