  47
        -86.85147347
 C         -3.9220710523       -1.8475930778       -0.4376789998
 N         -3.1181781042       -0.9501939854        0.3762779495
 C         -3.6780331512        0.1139220643        1.0075018240
 O         -3.0359821929        0.9506901338        1.6125967721
 C         -5.2002171525        0.2179620346        0.9923347483
 H         -5.5189631948        0.0652251282        2.0379497491
 H         -5.4700141591        1.2375550024        0.7074866396
 O         -5.9031110994       -0.6466270599        0.1364018002
 C         -5.3324740756       -1.9292540493        0.1365089470
 H         -5.3047571120       -2.3431539518        1.1557879876
 H         -5.9687630369       -2.5541301209       -0.4917940211
 C         -1.7147791000       -1.1391639608        0.3616040281
 C         -0.9523971532       -0.9430538376        1.5065850424
 C          0.4170148513       -1.1268038145        1.4821741191
 C          1.0631669092       -1.5097959143        0.3082121835
 C          0.2909339626       -1.7403010369       -0.8298998280
 C         -1.0757230420       -1.5561020596       -0.8014709046
 H         -1.6366749998       -1.7200721562       -1.7076039132
 H          0.7641680080       -2.0500531152       -1.7452767780
 N          2.4589159130       -1.6151278924        0.2656682538
 C          3.2163499664       -1.9186579837       -0.8414906845
 O          2.8505250201       -2.3368580915       -1.9024016605
 O          4.5209119504       -1.6776609339       -0.5726506511
 C          4.6459678842       -0.9841608142        0.6604702883
 C          4.8300238681        0.5247031630        0.3850001527
 N          3.6174088785        1.1221330931       -0.1124249566
 C          2.7538498302        1.7445831579        0.7364849468
 O          3.0631717755        2.0337272724        1.8795799327
 C          1.4058368479        1.9961360838        0.2204438646
 C          0.3790568061        2.5126941355        0.9646317711
 C         -0.8583731651        2.5053180495        0.3023787183
 C         -0.7627041012        1.9652329326       -0.9447052262
 S          0.8513199251        1.4900689241       -1.3486371112
 Cl        -2.0368220490        1.7224958040       -2.0470162581
 H         -1.7817091902        2.8318490742        0.7414856473
 H          0.5252317561        2.8678462337        1.9681397436
 H          3.3069259232        0.8627819994       -1.0365119453
 H          5.6364548969        0.6563341090       -0.3392218250
 H          5.0782648182        1.0350172564        1.3186391148
 C          3.3256428585       -1.2808357701        1.3815292595
 H          2.9733618184       -0.4122487238        1.9363771616
 H          3.4143238449       -2.1342757035        2.0640823445
 H          5.5237268691       -1.3768777486        1.1788603636
 H          0.9696778090       -0.9662997176        2.3931241277
 H         -1.4273811985       -0.6312447594        2.4214149922
 H         -3.9887990148       -1.4736121770       -1.4670170383
 H         -3.4479770338       -2.8319290695       -0.4426658857
