   47
FINAL HEAT OF FORMATION =    -8.872991
 C    -3.800814    -1.562759    -0.907258
 N    -2.894696    -1.309741     0.217591
 C    -3.458037    -0.677804     1.327639
 O    -2.789315    -0.268681     2.252951
 C    -4.955245    -0.470721     1.377758
 H    -5.417656    -1.291053     1.935305
 H    -5.175032     0.456734     1.916149
 O    -5.627876    -0.394388     0.116543
 C    -4.759939    -0.388322    -1.000710
 H    -5.369291    -0.404131    -1.913080
 H    -4.214566     0.562190    -0.968170
 C    -1.483208    -1.510219     0.106286
 C    -0.825502    -1.453954    -1.119844
 C     0.542706    -1.540071    -1.183550
 C     1.315068    -1.674452    -0.035664
 C     0.657893    -1.773412     1.186409
 C    -0.712148    -1.689990     1.251050
 H    -1.213612    -1.701789     2.203589
 H     1.232073    -1.883259     2.089049
 N     2.733730    -1.572955    -0.113784
 C     3.447091    -1.292915    -1.295235
 O     2.985716    -1.451988    -2.408439
 O     4.688393    -0.783384    -1.000577
 C     4.768116    -0.557924     0.411638
 C     4.692127     0.945450     0.679348
 N     3.417795     1.471097     0.250497
 C     2.363796     1.515606     1.148735
 O     2.554564     1.342483     2.345042
 C     1.011135     1.700975     0.646364
 C    -0.095777     1.700258     1.436864
 C    -1.309861     1.807765     0.719142
 C    -1.133342     1.882068    -0.627482
 S     0.549693     1.911214    -1.031676
Cl    -2.429345     1.904180    -1.757188
 H    -2.283192     1.744880     1.182521
 H    -0.040133     1.571941     2.507733
 H     3.231834     1.344131    -0.746275
 H     5.494097     1.469776     0.149926
 H     4.802716     1.159973     1.747588
 C     3.583760    -1.306279     1.041098
 H     3.060202    -0.686748     1.772648
 H     3.874973    -2.250886     1.509098
 H     5.733204    -0.972772     0.747732
 H     1.047781    -1.457929    -2.129745
 H    -1.381229    -1.273387    -2.021344
 H    -3.259819    -1.733217    -1.840793
 H    -4.356715    -2.478627    -0.685719
