23
Energy =
C    -0.1663881   -0.5208324    0.0000000 
C    -0.9582624    0.7990183    0.0000000 
C    -0.1087244    2.0694065    0.0000000 
H     0.5339492    2.1274971    0.8806197 
H    -0.7442567    2.9570251    0.0000000 
H     0.5339492    2.1274971   -0.8806197 
H    -1.6201205    0.8112389   -0.8692574 
H    -1.6201205    0.8112389    0.8692574 
C     0.6975347   -0.7059350    1.2566031 
C    -0.0680182   -0.6558818    2.5766794 
H     0.5854460   -0.9017864    3.4160411 
H    -0.8948722   -1.3712000    2.5790692 
H    -0.4871262    0.3333274    2.7685739 
H     1.2053215   -1.6721348    1.1764898 
H     1.4923797    0.0465642    1.2661883 
C     0.6975347   -0.7059350   -1.2566031 
C    -0.0680182   -0.6558818   -2.5766794 
H    -0.4871262    0.3333274   -2.7685739 
H    -0.8948722   -1.3712000   -2.5790692 
H     0.5854460   -0.9017864   -3.4160411 
H     1.4923797    0.0465642   -1.2661883 
H     1.2053215   -1.6721348   -1.1764898 
H    -0.9113563   -1.3279967    0.0000000 
