23
Energy =
C    -0.1647262   -0.5206843    0.0000000 
C    -0.9563414    0.7906610    0.0000000 
C    -0.1202672    2.0601577    0.0000000 
H     0.5212809    2.1258044    0.8778982 
H    -0.7586475    2.9430752    0.0000000 
H     0.5212809    2.1258044   -0.8778982 
H    -1.6201338    0.7993086   -0.8656773 
H    -1.6201338    0.7993086    0.8656773 
C     0.6945744   -0.7075198    1.2520168 
C    -0.0610348   -0.6460840    2.5684720 
H     0.5879317   -0.9054157    3.4044127 
H    -0.8998841   -1.3435843    2.5753611 
H    -0.4602358    0.3473082    2.7671276 
H     1.1942363   -1.6763541    1.1746626 
H     1.4975551    0.0335790    1.2567526 
C     0.6945744   -0.7075198   -1.2520168 
C    -0.0610348   -0.6460840   -2.5684720 
H    -0.4602358    0.3473082   -2.7671276 
H    -0.8998841   -1.3435843   -2.5753611 
H     0.5879317   -0.9054157   -3.4044127 
H     1.4975551    0.0335790   -1.2567526 
H     1.1942363   -1.6763541   -1.1746626 
H    -0.9085978   -1.3272941    0.0000000 
