11
Energy =
C     0.0000000    0.0000000    0.6166311 
C     0.0000000   -1.2715104   -0.2288339 
H     0.8815383   -1.3132627   -0.8739346 
H    -0.8815383   -1.3132627   -0.8739346 
H     0.0000000   -2.1683338    0.3940978 
C     0.0000000    1.2715104   -0.2288339 
H     0.8815383    1.3132627   -0.8739346 
H    -0.8815383    1.3132627   -0.8739346 
H     0.0000000    2.1683338    0.3940978 
H     0.8747035    0.0000000    1.2742898 
H    -0.8747035    0.0000000    1.2742898 
