14
Energy =
C     1.9526182   -0.1331913    0.0000000 
C     0.5685187    0.5101920    0.0000000 
C    -0.5685187   -0.5101920    0.0000000 
C    -1.9526182    0.1331913    0.0000000 
H    -2.0924851    0.7640410   -0.8816079 
H    -2.7444333   -0.6185488    0.0000000 
H    -2.0924851    0.7640410    0.8816079 
H    -0.4660199   -1.1609704   -0.8751356 
H    -0.4660199   -1.1609704    0.8751356 
H     0.4660199    1.1609704    0.8751356 
H     0.4660199    1.1609704   -0.8751356 
H     2.0924851   -0.7640410   -0.8816079 
H     2.7444333    0.6185488    0.0000000 
H     2.0924851   -0.7640410    0.8816079 
