  61
       -102.59210391
 S         -1.8221874304        2.0397495702       -1.1274250132
 O         -0.9958263873        1.9575607611        0.0440549697
 O         -3.1163965486        2.6425703106       -0.9307149958
 N         -2.0583891497        0.5738065069       -1.9089639795
 C         -1.0739689569       -0.3423362873       -1.6264179838
 N          0.1374859433        0.1650699622       -1.4753880210
 C          1.0532831144       -0.6123288404       -0.9021860265
 C          0.7239543883       -1.9120798992       -0.4812899939
 C         -0.4862965199       -2.4182201551       -0.9792269568
 N         -1.3815966944       -1.6234743483       -1.5479389520
 C         -0.8795132224       -3.8635312322       -0.8261919199
 C         -1.8079861600       -4.2954164431       -1.9576818906
 H         -2.0752559442       -5.3432334952       -1.8424498641
 H         -2.7104622823       -3.6925096264       -1.9429458819
 H         -1.3218902087       -4.1626643629       -2.9211679041
 C         -1.5660491553       -4.0426983455        0.5316760991
 H         -1.9282199454       -5.0631324172        0.6342761272
 H         -2.4079952926       -3.3593905153        0.6102501048
 H         -0.8686311790       -3.8367651879        1.3403200794
 H          0.0253579027       -4.4800100484       -0.8445869283
 C          1.5337025660       -2.6799137160        0.4683230028
 C          1.7095465291       -2.3574626554        1.7452319926
 C          1.2068722933       -1.1198657439        2.4582439799
 O          2.0009450620       -0.0284085902        2.0486359408
 H          1.5319879033        0.7813583195        2.3159819356
 H          1.3619063507       -1.2817306913        3.5424159795
 C         -0.2977767658       -0.8516020539        2.2565630086
 H         -0.8569535779       -1.7437471622        2.5397090385
 H         -0.5079178350       -0.6270151170        1.2122860089
 C         -0.7675759886        0.3375218670        3.1058909960
 O         -0.1579702427        1.5414329832        2.7028369589
 H         -0.4317143054        1.7486959098        1.7915669611
 H         -0.4373579357        0.1924369543        4.1441379914
 C         -2.3111600128        0.4586935533        3.1275550285
 C         -2.8610011192        0.8312114150        1.7692430336
 O         -2.8859969897        0.0892013914        0.8147430486
 O         -3.3196613720        2.0703833211        1.7399390199
 H         -3.5215834507        2.3551222622        0.8197890189
 H         -2.7340388114       -0.4969925267        3.4372370566
 H         -2.5928131559        1.2402725098        3.8328300196
 H          2.3096256766       -3.0144125214        2.3594439918
 H          1.9506617475       -3.6124326382        0.1039340115
 C          2.3836679970       -0.0188975667       -0.7504410680
 C          2.4804947215        1.3574174569       -0.5502420969
 C          3.7136146019        1.9605997105       -0.4122911364
 C          4.8493617602        1.1739709401       -0.4893591467
 C          4.7829960332       -0.1909440775       -0.6998921187
 C          3.5422921512       -0.7851203324       -0.8278500792
 H          3.4774393636       -1.8479663490       -1.0010800571
 H          5.6918571495       -0.7691168937       -0.7570491280
 F          6.0608276443        1.7574861891       -0.3629371854
 H          3.8076173900        3.0209627330       -0.2385441592
 H          1.5704966065        1.9313022733       -0.4715690876
 C         -3.4026260581        0.0968392287       -2.1510919399
 H         -4.0455462372        0.9697790966       -2.2185189424
 H         -3.7331119087       -0.5468048227       -1.3352739200
 H         -3.4105129658       -0.4600267911       -3.0868669289
 C         -0.9230746471        2.9666687288       -2.3777130515
 H         -0.6814548367        3.9425217858       -1.9757370759
 H         -0.0268255364        2.3988999071       -2.5917310607
 H         -1.5599506843        3.0528955824       -3.2473470388
