   61
FINAL HEAT OF FORMATION =   -10.874138
 S     2.942528    -2.309577     0.620699
 O     3.791563    -3.012676     1.635953
 O     3.295989    -2.237007    -0.834210
 N     2.732070    -0.673352     1.131267
 C     1.535636     0.041583     1.200719
 N     0.393113    -0.634472     1.087149
 C    -0.727175     0.067933     1.117906
 C    -0.702582     1.471615     1.168226
 C     0.546133     2.071039     1.307303
 N     1.653516     1.363480     1.368199
 C     0.673108     3.573550     1.425860
 C     1.917646     4.066702     0.690866
 H     2.814230     3.630222     1.129724
 H     1.891512     3.773132    -0.358758
 H     2.012250     5.151746     0.739509
 C     0.682958     3.991917     2.893469
 H    -0.218916     3.657885     3.407068
 H     0.754872     5.074316     3.002351
 H     1.534931     3.547407     3.407155
 H    -0.207697     4.020272     0.934485
 C    -1.928456     2.262582     0.965461
 C    -2.329902     2.739312    -0.213211
 C    -1.542495     2.617110    -1.487001
 O    -0.358199     3.405901    -1.436050
 H     0.230471     3.071118    -2.145863
 H    -2.144905     3.050401    -2.304456
 C    -1.211914     1.169002    -1.871187
 H    -2.114747     0.554123    -1.815348
 H    -0.508510     0.760754    -1.143969
 C    -0.570014     1.040625    -3.255254
 O     0.684947     1.718117    -3.320374
 H     1.372363     1.053287    -3.099530
 H    -1.217154     1.546944    -3.990150
 C    -0.385736    -0.430798    -3.655665
 C     0.548223    -1.135880    -2.714770
 O     0.113054    -1.946155    -1.927561
 O     1.850800    -0.777844    -2.784418
 H     2.349578    -1.300686    -2.122205
 H    -1.345369    -0.953089    -3.664798
 H     0.024764    -0.490877    -4.666431
 H    -3.244567     3.306670    -0.253437
 H    -2.541401     2.444968     1.833876
 C    -2.004319    -0.669847     1.007903
 C    -3.070482    -0.423711     1.871353
 C    -4.245914    -1.126328     1.752173
 C    -4.389107    -2.094794     0.775151
 C    -3.331562    -2.358405    -0.076056
 C    -2.155170    -1.658737     0.039879
 H    -1.338560    -1.848937    -0.635634
 H    -3.451410    -3.117383    -0.828593
 F    -5.557484    -2.769362     0.645815
 H    -5.071212    -0.940854     2.416232
 H    -2.955615     0.309441     2.650176
 C     4.004331    -0.022958     1.212759
 H     4.712298    -0.665526     1.740351
 H     3.906472     0.919601     1.752582
 H     4.379296     0.174689     0.207256
 C     1.335231    -3.158652     0.675512
 H     0.744801    -2.797011     1.510998
 H     0.798497    -2.971644    -0.249444
 H     1.489574    -4.226995     0.786523
