24
Energy =
C     0.2121701   -0.4981878    0.1886183 
C     1.4233735    0.3527819   -0.1842885 
C     2.7525670   -0.2423018    0.2751891 
C     3.9564676    0.6156177   -0.1047289 
H     3.8843381    1.6122881    0.3382248 
H     4.8921566    0.1674771    0.2357390 
H     4.0229090    0.7417490   -1.1884425 
H     2.8658796   -1.2436072   -0.1541361 
H     2.7285422   -0.3796253    1.3615763 
H     1.3077900    1.3544233    0.2457201 
H     1.4469804    0.4922782   -1.2712899 
C    -1.1146327    0.1015812   -0.2693086 
C    -2.3234182   -0.7546444    0.0987759 
C    -3.6565754   -0.1431570   -0.3114960 
O    -3.9177355    1.1113551    0.3153908 
H    -3.9631765    0.9700606    1.2675473 
H    -3.6613240    0.0658385   -1.3834724 
H    -4.4719699   -0.8491362   -0.1098731 
H    -2.2388839   -1.7411353   -0.3716112 
H    -2.3324281   -0.9364214    1.1813636 
H    -1.2368228    1.0986319    0.1624244 
H    -1.0944502    0.2417201   -1.3562027 
H     0.1901428   -0.6375799    1.2758285 
H     0.3281000   -1.5000064   -0.2415484 
