24
Energy =
C     0.2127527   -0.4930703    0.1895962 
C     1.4210995    0.3502985   -0.1845916 
C     2.7453525   -0.2393776    0.2750082 
C     3.9457359    0.6100901   -0.1063037 
H     3.8779899    1.6073842    0.3296820 
H     4.8789924    0.1638394    0.2360322 
H     4.0157710    0.7314788   -1.1877940 
H     2.8577327   -1.2418746   -0.1468182 
H     2.7215323   -0.3728869    1.3599208 
H     1.3065497    1.3527905    0.2383107 
H     1.4447806    0.4863447   -1.2699241 
C    -1.1089134    0.1025964   -0.2673841 
C    -2.3143330   -0.7487889    0.0952852 
C    -3.6448473   -0.1397282   -0.3068166 
O    -3.9160644    1.1120043    0.3216614 
H    -3.9827836    0.9536416    1.2702027 
H    -3.6506956    0.0713494   -1.3766299 
H    -4.4558588   -0.8520427   -0.1141011 
H    -2.2327232   -1.7308632   -0.3807436 
H    -2.3209984   -0.9411948    1.1740835 
H    -1.2320726    1.0980695    0.1620837 
H    -1.0873990    0.2448921   -1.3519850 
H     0.1910906   -0.6292480    1.2751508 
H     0.3273096   -1.4957045   -0.2339254 
