  48
        -95.17722127
 S          0.4234640012       -1.6444781808        0.8078416796
 C          0.2256080346       -0.0365061421        0.5926889380
 N          1.2066050536        0.8854208596        0.4788511153
 C          2.5696890517        0.5482228606        0.3295430963
 C          2.9517890637       -0.3204489797       -0.6849520360
 C          4.2844120616       -0.6560559801       -0.8225200555
 C          5.2688630482       -0.1423041344        0.0149730549
 C          4.8580870369        0.7401667093        1.0112481887
 C          3.5307100381        1.0765587039        1.1836232085
 H          3.2418860280        1.7333105772        1.9870843085
 H          5.6197810269        1.1538255907        1.6543542768
 C          6.7439150463       -0.4098301429       -0.0885079497
 O          7.5477090498        0.4100267776        0.3115092061
 N          7.0946480396       -1.6008090635       -0.6098461357
 H          6.3972390371       -2.2500969983       -0.9339312607
 C          8.4745280372       -1.9883940613       -0.7684831625
 H          9.0915080406       -1.1821761364       -0.3753060139
 H          8.7105140625       -2.1454828925       -1.8224381820
 H          8.6792050066       -2.9063881555       -0.2151543076
 F          4.6080570741       -1.4907058199       -1.8334021838
 H          2.2272070744       -0.7444028562       -1.3617141248
 C          0.6769710834        2.2185059110        0.2210143198
 C         -0.8283489216        1.9672299324        0.2488202385
 O         -1.6999369040        2.7806159698        0.1129353487
 N         -0.9993649514        0.6200728956        0.4915530130
 C         -2.2587169651        0.0018438980        0.6090648782
 C         -2.5107420081       -0.9014382661        1.6367887233
 C         -3.7506230211       -1.4996842611        1.7367625922
 C         -4.7577059914       -1.1921820939        0.8228296158
 C         -4.4985809483       -0.2703799308       -0.1990682261
 C         -3.2542949352        0.3216390658       -0.3093900959
 H         -3.0608889019        1.0323091916       -1.0969929742
 C         -5.5906129164        0.0591922495       -1.1834192011
 F         -6.6592699228        0.6105311703       -0.5882461392
 F         -5.1914758765        0.9224603971       -2.1260940490
 F         -6.0303759180       -1.0309876364       -1.8330143916
 C         -6.0251900056       -1.8124850930        0.9510964804
 N         -7.0387580180       -2.3278110972        1.0830313689
 H         -3.9529050543       -2.2052913873        2.5276144711
 H         -1.7397530312       -1.1372873967        2.3518477052
 C          1.0947461289        2.7181661309       -1.1636385872
 H          0.5672981507        3.6423511760       -1.3837014497
 H          0.8465941366        1.9842422605       -1.9279367141
 H          2.1664381327        2.9018391164       -1.1883495285
 C          1.0299990722        3.2380957272        1.3050364964
 H          2.0572320808        3.5749717271        1.1974705789
 H          0.8879840384        2.8100525673        2.2951234224
 H          0.3677160897        4.0945637557        1.2010276192
