   48
FINAL HEAT OF FORMATION =    -9.487079
 S     0.139762     1.373470     0.028470
 C     0.071601    -0.269167     0.013789
 N    -1.117712    -0.960535    -0.040244
 C    -2.441335    -0.409324     0.076682
 C    -3.385530    -0.584772    -0.928570
 C    -4.661297    -0.081207    -0.812803
 C    -5.020360     0.636626     0.335290
 C    -4.071254     0.822384     1.331969
 C    -2.804434     0.312422     1.209960
 H    -2.075190     0.462970     1.986281
 H    -4.359228     1.380436     2.207809
 C    -6.363297     1.204929     0.535542
 O    -6.634708     1.746799     1.595114
 N    -7.306676     1.132042    -0.465654
 H    -7.087823     0.728058    -1.377851
 C    -8.603153     1.734638    -0.296684
 H    -8.702614     2.611090    -0.936076
 H    -8.709761     2.048957     0.741918
 H    -9.393897     1.022206    -0.529534
 F    -5.547332    -0.309387    -1.804653
 H    -3.115583    -1.092231    -1.834624
 C    -0.870259    -2.435831     0.000869
 C     0.646149    -2.497384     0.090960
 O     1.265230    -3.527825     0.171122
 N     1.133277    -1.173550     0.063621
 C     2.538782    -0.909264     0.100389
 C     3.451583    -1.932678     0.321106
 C     4.802361    -1.688679     0.355468
 C     5.301794    -0.406367     0.165425
 C     4.395121     0.629296    -0.064821
 C     3.046431     0.367510    -0.093920
 H     2.381427     1.189917    -0.277196
 C     4.856035     2.057728    -0.286345
 F     5.520680     2.477411     0.807030
 F     5.656958     2.096911    -1.368183
 F     3.772476     2.832811    -0.489941
 C     6.689218    -0.207093     0.209658
 N     7.844334    -0.094160     0.256245
 H     5.496397    -2.494788     0.527609
 H     3.079933    -2.932972     0.454581
 C    -1.328456    -3.129631    -1.276079
 H    -2.414324    -3.156078    -1.344260
 H    -0.960004    -4.154655    -1.301103
 H    -0.936412    -2.611058    -2.149726
 C    -1.487960    -3.059654     1.245877
 H    -1.197578    -4.105981     1.332355
 H    -2.574690    -3.000064     1.213948
 H    -1.143399    -2.539543     2.138261
