23
Energy =
C    -0.4792185   -0.5881956    0.0000000 
C    -1.6303385    0.4061714    0.0000000 
C    -2.9861919   -0.2814769    0.0000000 
H    -3.8019483    0.4408995    0.0000000 
H    -3.1075837   -0.9158719    0.8787632 
H    -3.1075837   -0.9158719   -0.8787632 
H    -1.5605097    1.0579073    0.8724666 
H    -1.5605097    1.0579073   -0.8724666 
H    -0.5838347   -1.2411655   -0.8719937 
H    -0.5838347   -1.2411655    0.8719937 
C     0.9491094   -0.0179330    0.0000000 
C     1.1973288    0.8276910    1.2477800 
H     0.5714551    1.7182984    1.2671220 
H     0.9956934    0.2577286    2.1554141 
H     2.2350841    1.1591820    1.2887129 
C     1.1973288    0.8276910   -1.2477800 
H     0.9956934    0.2577286   -2.1554141 
H     2.2350841    1.1591820   -1.2887129 
H     0.5714551    1.7182984   -1.2671220 
C     1.9248961   -1.1946995    0.0000000 
H     2.9584892   -0.8477363    0.0000000 
H     1.7849680   -1.8222847    0.8807254 
H     1.7849680   -1.8222847   -0.8807254 
