  59
        -97.25287695
 O         -0.5710039383        0.8191450802        0.3575219156
 C         -0.7678409392       -0.3340569186        0.0178609122
 N          0.2385040606       -1.2159549230       -0.2751310753
 C          1.5849330611       -0.8012189293       -0.1711690574
 C          2.0270210494       -0.1291599321        0.9621629488
 C          3.3459030498        0.2652660618        1.0700729663
 C          4.2530570619       -0.0066599417        0.0506789779
 C          3.8072070736       -0.6731649389       -1.0862780283
 C          2.4892780733       -1.0675959327       -1.1948490458
 H          2.1614910827       -1.5696529306       -2.0923540504
 H          4.4962010831       -0.8849609415       -1.8870560195
 N          5.6002580626        0.4156180521        0.1469039958
 C          6.6024470630       -0.4478119523       -0.1891519917
 O          6.3840110622       -1.5931759510       -0.5305649953
 C          8.0257080655        0.0857850412       -0.1924149728
 C          8.2621050607        1.3519840396        0.6163070312
 C          7.1385800691        2.3317630449        0.3150460172
 C          5.8309700603        1.7063480506        0.7760759997
 H          5.8612820455        1.5910760497        1.8683320000
 H          4.9856610665        2.3534100547        0.5244769891
 H          7.0983240840        2.5336590458       -0.7569629832
 H          7.2872490667        3.2774390439        0.8376890197
 H          8.2683170457        1.1214000388        1.6838420311
 H          9.2332630660        1.7792980353        0.3607660441
 H          8.2626930800        0.2712740408       -1.2451719696
 H          8.6737280574       -0.7273969620        0.1386160351
 H          3.6666230404        0.7713940597        1.9670549708
 H          1.3360530400        0.0849370705        1.7610489399
 C         -0.0307959381       -2.5335339214       -0.8407980797
 C         -1.1274739516       -3.2621849169       -0.0639060945
 C         -2.2810729483       -2.3335479117        0.0102878911
 C         -2.0941959412       -0.9606269125       -0.0521281055
 N         -3.3277309399       -0.3927269069        0.0489028788
 N         -4.2702099456       -1.3146929027        0.1635138659
 C         -3.6667269508       -2.5051799054        0.1452278729
 C         -4.4125779577       -3.7751299021        0.2265778623
 O         -3.8754259619       -4.8640379045        0.1692998686
 N         -5.7453049587       -3.6035238961        0.3659118451
 H         -6.3495949630       -4.4057568933        0.4118458367
 H         -6.1254249546       -2.6735538943        0.3795178407
 C         -3.6848989332        0.9637660947        0.0122338750
 C         -4.7682069412        1.3915870992        0.7759678612
 C         -5.1493009348        2.7127641010        0.7501488571
 C         -4.4562369203        3.6356600983       -0.0383171332
 C         -3.3870779122        3.1974740939       -0.8140321196
 C         -3.0095649185        1.8672750922       -0.7937651155
 H         -2.1852079120        1.5416420888       -1.4064631050
 H         -2.8395889008        3.8803070918       -1.4432331120
 O         -4.9058039151        4.9157831003        0.0169998618
 C         -4.2335469009        5.9011270978       -0.7309011288
 H         -3.1837499044        5.9839290927       -0.4331171150
 H         -4.7454238994        6.8367201000       -0.5114561348
 H         -4.2932998878        5.7004720988       -1.8053991297
 H         -5.9803629409        3.0644861044        1.3400458465
 H         -5.2956399524        0.6751421012        1.3855558538
 H         -0.7863149659       -3.5101799192        0.9456449098
 H         -1.4073179494       -4.1916669153       -0.5586140987
 H         -0.3464159239       -2.4294849193       -1.8880970837
 H          0.8980620589       -3.1044059257       -0.8097330679
