   59
FINAL HEAT OF FORMATION =   -11.615547
 O     0.608076    -0.776244    -0.146486
 C     0.798874     0.419765    -0.007331
 N    -0.262148     1.328799     0.178435
 C    -1.615777     0.881887     0.119974
 C    -2.628740     1.538119     0.814302
 C    -3.931899     1.114348     0.722619
 C    -4.289944     0.018527    -0.056794
 C    -3.273654    -0.637900    -0.748657
 C    -1.970080    -0.215267    -0.657719
 H    -1.188869    -0.743519    -1.176030
 H    -3.512168    -1.482652    -1.369177
 N    -5.643995    -0.438446    -0.113435
 C    -6.705952     0.425767     0.202471
 O    -6.527081     1.601603     0.444421
 C    -8.121614    -0.083337     0.255430
 C    -8.342843    -1.338983    -0.590505
 C    -7.272080    -2.380457    -0.266711
 C    -5.878173    -1.831912    -0.567617
 H    -5.113103    -2.465095    -0.105326
 H    -5.696600    -1.858907    -1.646473
 H    -7.454158    -3.311910    -0.819844
 H    -7.335451    -2.649315     0.794497
 H    -9.350880    -1.747700    -0.435838
 H    -8.286926    -1.075633    -1.653666
 H    -8.788202     0.728016    -0.058022
 H    -8.370614    -0.290023     1.301244
 H    -4.708423     1.643414     1.245480
 H    -2.383382     2.376741     1.441262
 C     0.001416     2.756304     0.506486
 C     1.293367     3.327468    -0.095082
 C     2.380370     2.314686    -0.074974
 C     2.149582     0.972246    -0.032805
 N     3.423591     0.384238    -0.047759
 N     4.388535     1.293597    -0.092750
 C     3.781154     2.473723    -0.104981
 C     4.481230     3.763233    -0.137694
 O     3.845812     4.807045    -0.119975
 N     5.845033     3.722004    -0.183885
 H     6.390569     4.567135    -0.189857
 H     6.352398     2.849559    -0.175254
 C     3.747855    -1.022292    -0.031659
 C     2.970226    -1.951097     0.641909
 C     3.324936    -3.277637     0.673255
 C     4.484616    -3.722019     0.033934
 C     5.265105    -2.776297    -0.634280
 C     4.902683    -1.452456    -0.663682
 H     5.511528    -0.725724    -1.172642
 H     6.160553    -3.112328    -1.126138
 O     4.924411    -5.050917     0.014618
 C     4.084544    -5.960939     0.680072
 H     4.016847    -5.698251     1.736465
 H     4.517317    -6.957845     0.589145
 H     3.096751    -5.958956     0.217516
 H     2.697649    -3.979075     1.191931
 H     2.062881    -1.619208     1.115993
 H     1.628094     4.222697     0.444130
 H     1.124663     3.644106    -1.130370
 H    -0.858703     3.344145     0.170264
 H     0.028598     2.837341     1.597319
