10
Energy =
C    -1.8389551    0.1248770    0.0000000 
C    -0.6097509   -0.3941228    0.0000000 
C     0.6097509    0.3941228    0.0000000 
C     1.8389551   -0.1248770    0.0000000 
H     1.9982639   -1.1972488    0.0000000 
H     2.7206974    0.5018348    0.0000000 
H     0.4855029    1.4738144    0.0000000 
H    -0.4855029   -1.4738144    0.0000000 
H    -1.9982639    1.1972488    0.0000000 
H    -2.7206974   -0.5018348    0.0000000 
