10
Energy =
C    -1.8373586    0.1260346    0.0000000 
C    -0.6069054   -0.3909042    0.0000000 
C     0.6069054    0.3909042    0.0000000 
C     1.8373586   -0.1260346    0.0000000 
H     2.0022589   -1.1964983    0.0000000 
H     2.7178501    0.5006248    0.0000000 
H     0.4851911    1.4703135    0.0000000 
H    -0.4851911   -1.4703135    0.0000000 
H    -2.0022589    1.1964983    0.0000000 
H    -2.7178501   -0.5006248    0.0000000 
