14
Energy =
C     0.0000000    0.0000000    0.4045052 
C     0.7277564    1.2605111   -0.0647913 
H     0.7540193    1.3059998   -1.1576210 
H     1.7594201    1.2804798    0.2936272 
H     0.2292180    2.1639425    0.2936272 
C     0.7277564   -1.2605111   -0.0647913 
H     0.2292180   -2.1639425    0.2936272 
H     1.7594201   -1.2804798    0.2936272 
H     0.7540193   -1.3059998   -1.1576210 
C    -1.4555128    0.0000000   -0.0647913 
H    -1.5080387    0.0000000   -1.1576210 
H    -1.9886381   -0.8834626    0.2936272 
H    -1.9886381    0.8834626    0.2936272 
H     0.0000000    0.0000000    1.5009688 
