23
Energy =
C    -0.2662292    0.3195226   -0.2527321 
C    -0.3171505    1.2471010    0.9646763 
H    -1.2440810    1.8210678    0.9823161 
H    -0.2648038    0.6798285    1.8968583 
H     0.5050758    1.9635785    0.9620200 
C    -1.4053263   -0.7103244   -0.2245012 
C    -2.8023121   -0.1064150   -0.3564570 
H    -3.0501162    0.5365121    0.4896290 
H    -3.5629902   -0.8880860   -0.4058376 
H    -2.8846210    0.4950618   -1.2657002 
H    -1.2492562   -1.4228832   -1.0409808 
H    -1.3509497   -1.2903491    0.7020059 
H    -0.4205524    0.9390987   -1.1457294 
C     1.1095285   -0.3628027   -0.4423710 
C     2.2049553    0.6433042   -0.8026681 
H     1.9134326    1.2579379   -1.6576003 
H     2.4267188    1.3130425    0.0311984 
H     3.1330152    0.1285025   -1.0607662 
C     1.5421535   -1.2170552    0.7522966 
H     1.7202060   -0.6016683    1.6369656 
H     2.4734112   -1.7413968    0.5275745 
H     0.7950167   -1.9686464    1.0110130 
H     0.9948752   -1.0349312   -1.3012097 
