23
Energy =
C    -0.2653556    0.3181119   -0.2464911 
C    -0.3194110    1.2426094    0.9632074 
H    -1.2359909    1.8287946    0.9715924 
H    -0.2867569    0.6793776    1.8958080 
H     0.5082392    1.9490731    0.9735071 
C    -1.4024215   -0.7052873   -0.2237561 
C    -2.7935467   -0.1073066   -0.3577386 
H    -3.0536939    0.5217897    0.4918309 
H    -3.5506581   -0.8881040   -0.4236699 
H    -2.8739947    0.5048168   -1.2571243 
H    -1.2444542   -1.4171509   -1.0382430 
H    -1.3512604   -1.2882305    0.6986988 
H    -0.4173072    0.9368141   -1.1388683 
C     1.1064194   -0.3606770   -0.4360591 
C     2.1968662    0.6375861   -0.8051632 
H     1.9011215    1.2564069   -1.6526464 
H     2.4355316    1.3028596    0.0242379 
H     3.1179766    0.1220834   -1.0766863 
C     1.5424602   -1.2091081    0.7518449 
H     1.7270392   -0.5959968    1.6335994 
H     2.4699683   -1.7350159    0.5262579 
H     0.7998784   -1.9591951    1.0177922 
H     0.9893503   -1.0342510   -1.2919307 
