  33
        -59.99254347
 P          2.8704720992       -0.6670220019       -0.1576389606
 O          3.2972520973        0.2474419670       -1.2307259879
 O          1.7946680746       -1.7368779933       -0.5777509195
 H          0.8222010805       -1.4955879745       -0.4614839093
 O          4.0884730928       -1.5649940103        0.3763970400
 H          4.7655880818       -1.5742930367       -0.3009649706
 C          2.2831761374        0.1120800431        1.4153760314
 O          1.0895861465        0.8230650592        1.2441960345
 C          1.1644381508        1.9290580381        0.3533300086
 C          0.5483681821        3.1432530638        1.0447889912
 H          0.5844551861        4.0104020486        0.3912249713
 H          1.0995202003        3.3644600750        1.9548369775
 H         -0.4838648171        2.9348220871        1.3156060124
 H          2.2106681501        2.1339800149        0.0997659873
 C          0.4380331240        1.5925770206       -0.9673129723
 N         -0.9267068787        1.2105730486       -0.7372139419
 C         -1.3905308934       -0.0163939356       -0.3753149071
 N         -0.7448529111       -1.1825949438       -0.2634718913
 C         -1.5288159220       -2.1842859226        0.1014911437
 N         -2.8231289176       -2.1587088954        0.3480861638
 C         -3.4892169002       -1.0043828870        0.2284351486
 N         -4.8071108961       -0.9918328595        0.4730801693
 H         -5.2647889062       -1.8456718460        0.7366101958
 H         -5.3162478832       -0.1317658530        0.3823271582
 C         -2.7706898872        0.1428520925       -0.1516008886
 N         -3.1237068689        1.4487690935       -0.3716649122
 C         -2.0151878644        2.0366390675       -0.7048719430
 H         -1.9442288510        3.0766800607       -0.9571669674
 H         -1.0458619364       -3.1459359283        0.2077891575
 H          0.9607601024        0.7708430009       -1.4600739623
 H          0.4565141282        2.4683660057       -1.6194549922
 H          2.0737561357       -0.6785849372        2.1362310524
 H          3.0827141544        0.7532170386        1.8080500042
