  57
        -89.10298896
 Cl        -1.9786764715        2.0370427126       -1.8309501385
 C         -1.7984558350        1.5999628036       -0.1632948239
 C         -2.8881980491        1.0169136889        0.4693474097
 C         -2.8701954772        0.7434781561        1.8272598368
 C         -1.7278658513        1.0499828347        2.5432136413
 C         -0.6271531068        1.6006347884        1.9193893379
 C         -0.6192747681        1.8948132716        0.5480513835
 N          0.4391995689        2.5409719623       -0.0529338922
 C          1.0543960547        2.0615207479       -1.2715825776
 H          0.3718005286        1.4174660146       -1.8197400858
 C          2.3287683398        1.2664131605       -0.9621737816
 N          3.2561210812        2.0866444478       -0.2093266620
 C          2.6536651098        2.4823403274        1.0470710962
 H          3.3616131670        3.1057724452        1.5978096906
 C          1.3921320598        3.2931614630        0.7311754054
 H          0.9193830467        3.6621476933        1.6410118623
 H          1.6929342211        4.1541474099        0.1234817813
 H          2.3879434571        1.6140416557        1.6757950508
 C          4.6029700545        1.5628203398       -0.1009031258
 H          5.0197316121        1.5277253486       -1.1122734627
 H          5.1742624423        2.3034404231        0.4648198324
 C          4.7589123204        0.1790065535        0.5632137165
 H          3.9237690635        0.0151357093        1.2465458170
 C          4.8003666999       -0.9676722852       -0.4484022333
 H          5.7898611100       -1.0332739844       -0.9042580845
 H          4.0779600081       -0.7786089334       -1.2413522027
 C          4.4794806133       -2.3124685869        0.2110065476
 H          4.5254888689       -3.1238068796       -0.5263581224
 O          3.2353265347       -2.3145615405        0.8808939352
 C          2.0743661520       -2.2697421127        0.1685866886
 C          1.9572063230       -2.3875962953       -1.2121148346
 C          0.7063521473       -2.3081333208       -1.8063120171
 C         -0.4424594344       -2.1417523888       -1.0585881976
 C         -0.3254931348       -2.0705999300        0.3328987298
 C          0.9197388366       -2.1111691729        0.9357005202
 H          1.0162152524       -2.0407396985        2.0082230902
 N         -1.4765690098       -1.9706665278        1.1030903466
 C         -2.7338131185       -2.2926779105        0.6846788795
 O         -3.6736728610       -2.2540477228        1.4469530144
 C         -2.8247738101       -2.7429361108       -0.7568551999
 C         -1.8163492638       -2.0237535749       -1.6480698263
 H         -2.0877481869       -0.9658994048       -1.7200142858
 H         -1.8393529169       -2.4404930350       -2.6560461874
 H         -2.6291419453       -3.8201671469       -0.7662764573
 H         -3.8459141298       -2.5842437127       -1.1033092516
 H         -1.3719412806       -1.7467608167        2.0840867698
 H          0.6311083918       -2.3808790999       -2.8814166066
 H          2.8213274955       -2.5465972007       -1.8363336433
 H          5.2056651366       -2.5221429824        1.0013745833
 H          5.6721343079        0.1617321701        1.1601501358
 H          2.7980982338        0.9831632844       -1.9066330211
 H          2.0389748022        0.3516735631       -0.4164874001
 H          1.3116651698        2.9274856790       -1.8904478770
 H          0.2522303790        1.8059113230        2.5077362624
 H         -1.6928555260        0.8470208050        3.6031282197
 H         -3.7272287920        0.2882597892        2.2941859024
 Cl        -4.3109963425        0.6506834998       -0.4346242584
