32
Energy =
C    -5.7297626   -0.2963671    0.0000000 
C    -4.4455502    0.5152881    0.0000000 
C    -3.1906105   -0.3437875    0.0000000 
C    -1.8993784    0.4586961    0.0000000 
C    -0.6455897   -0.4013920    0.0000000 
C     0.6455897    0.4013920    0.0000000 
C     1.8993784   -0.4586961    0.0000000 
C     3.1906105    0.3437875    0.0000000 
C     4.4455502   -0.5152881    0.0000000 
C     5.7297626    0.2963671    0.0000000 
H     5.7903998    0.9393199   -0.8787919 
H     5.7903998    0.9393199    0.8787919 
H     6.6106720   -0.3450074    0.0000000 
H     4.4292546   -1.1743019   -0.8722186 
H     4.4292546   -1.1743019    0.8722186 
H     3.2062418    1.0038408   -0.8725431 
H     3.2062418    1.0038408    0.8725431 
H     1.8844222   -1.1184810   -0.8725793 
H     1.8844222   -1.1184810    0.8725793 
H     0.6604705    1.0611264   -0.8725615 
H     0.6604705    1.0611264    0.8725615 
H    -0.6604705   -1.0611264   -0.8725615 
H    -0.6604705   -1.0611264    0.8725615 
H    -1.8844222    1.1184810   -0.8725793 
H    -1.8844222    1.1184810    0.8725793 
H    -3.2062418   -1.0038408   -0.8725431 
H    -3.2062418   -1.0038408    0.8725431 
H    -4.4292546    1.1743019   -0.8722186 
H    -4.4292546    1.1743019    0.8722186 
H    -5.7903998   -0.9393199   -0.8787919 
H    -5.7903998   -0.9393199    0.8787919 
H    -6.6106720    0.3450074    0.0000000 
