17
Energy =
C     0.0000000    0.0000000    0.2889678 
C     0.0000000    1.2779290   -0.5470412 
C     0.0000000    2.5482396    0.2994356 
H    -0.8815261    2.5904540    0.9442671 
H     0.8815261    2.5904540    0.9442671 
H     0.0000000    3.4451894   -0.3231877 
H     0.8750922    1.2763892   -1.2056003 
H    -0.8750922    1.2763892   -1.2056003 
C     0.0000000   -1.2779290   -0.5470412 
C     0.0000000   -2.5482396    0.2994356 
H     0.8815261   -2.5904540    0.9442671 
H    -0.8815261   -2.5904540    0.9442671 
H     0.0000000   -3.4451894   -0.3231877 
H     0.8750922   -1.2763892   -1.2056003 
H    -0.8750922   -1.2763892   -1.2056003 
H     0.8754683    0.0000000    0.9489757 
H    -0.8754683    0.0000000    0.9489757 
