17
Energy =
C    -0.0000000    0.0000000    0.2872849 
C    -0.0000000    1.2740178   -0.5431042 
C    -0.0000000    2.5396560    0.2973670 
H    -0.8787907    2.5857968    0.9414811 
H     0.8787907    2.5857968    0.9414811 
H    -0.0000000    3.4346878   -0.3241415 
H     0.8722608    1.2726891   -1.2022879 
H    -0.8722608    1.2726891   -1.2022879 
C    -0.0000000   -1.2740178   -0.5431042 
C    -0.0000000   -2.5396560    0.2973670 
H     0.8787907   -2.5857968    0.9414811 
H    -0.8787907   -2.5857968    0.9414811 
H    -0.0000000   -3.4346878   -0.3241415 
H     0.8722608   -1.2726891   -1.2022879 
H    -0.8722608   -1.2726891   -1.2022879 
H     0.8724977    0.0000000    0.9478499 
H    -0.8724977    0.0000000    0.9478499 
