  43
        -89.03483124
 F         -3.8931110833        2.0071030870        0.7886829174
 C         -3.2818400635        1.5619820467       -0.3310300555
 F         -4.0833440446        1.8261610112       -1.3503110797
 F         -2.1856930602        2.3361710411       -0.4659060631
 C         -2.9232400666        0.1238730506       -0.2151719982
 N         -3.3689380540       -0.8592489750       -0.9465059714
 N         -2.7903720627       -1.9808419605       -0.5206869212
 C         -1.9978500807       -1.6793499259        0.4715690826
 N         -2.0464180841       -0.3411569170        0.7235170344
 C         -1.2719821015        0.3688941175        1.7123540232
 H         -1.9231131114        1.0342401383        2.2855349878
 C         -0.5882791190       -0.6554358507        2.6260830720
 N         -0.0522061054       -1.7422948793        1.8304181203
 C          1.2242239033       -1.6259628969        1.3631211394
 O          1.9439408970       -0.7247988839        1.7466391205
 C          1.6971709200       -2.6892949314        0.3971991856
 H          1.4118049124       -3.6766339185        0.7612312155
 H          2.7862399205       -2.6352739335        0.3690322035
 C          1.1255769459       -2.5081339814       -1.0261698312
 N          0.9265169554       -3.8241090015       -1.5977667881
 H          0.4190579714       -3.7696680320       -2.4728517993
 H          1.8153319582       -4.2809010086       -1.7728507557
 H          0.1375259455       -2.0415349789       -0.9802088657
 C          2.0346259624       -1.5899420125       -1.8810558471
 C          2.2375939519       -0.2499779901       -1.2431698910
 C          3.4700279430        0.1394530269       -0.7374918823
 C          3.6310509327        1.3650940485       -0.1189389227
 C          2.5587459313        2.2399650538       -0.0017739734
 C          1.3206219400        1.8849910368       -0.5052849833
 C          1.1850379500        0.6487830156       -1.1063489420
 F         -0.0410420419        0.3045050002       -1.5655719521
 H          0.4842029395        2.5631050398       -0.4383030226
 F          2.7089719215        3.4323370744        0.5897929872
 F          4.8367009242        1.7082720642        0.3536240869
 H          4.3243789437       -0.5144639767       -0.8105028436
 H          3.0008819646       -2.0762030189       -2.0297588123
 H          1.5568089802       -1.4594430467       -2.8562048605
 C         -1.1009950959       -2.5657968985        1.2666551304
 H         -0.7175550851       -3.3647799211        0.6351191657
 H         -1.6710021111       -3.0252998689        2.0854381363
 H          0.2361678718       -0.1780118325        3.1568810701
 H         -1.3006971324       -1.0683708246        3.3449150737
 H         -0.5121620917        0.9711400988        1.2030560158
