   43
FINAL HEAT OF FORMATION =    -7.791133
 F     3.848749     1.971107    -0.051718
 C     2.602672     2.192466     0.401458
 F     2.453955     1.646719     1.621305
 F     2.340315     3.510792     0.438795
 C     1.626929     1.510612    -0.532684
 N     0.318902     1.663213    -0.514510
 N    -0.241615     0.676845    -1.168176
 C     0.705608    -0.107566    -1.636714
 N     1.927761     0.383240    -1.251016
 C     3.205032    -0.354377    -1.321125
 H     3.656452    -0.304254    -0.324562
 C     2.998362    -1.810230    -1.752986
 N     1.656612    -2.261966    -1.347223
 C     1.531213    -2.605329     0.003018
 O     2.506977    -2.975004     0.628006
 C     0.250285    -2.396362     0.746872
 H     0.137196    -3.193482     1.485640
 H    -0.610212    -2.472899     0.080867
 C     0.287128    -1.040381     1.466462
 N     1.415609    -0.983869     2.402812
 H     1.840107    -0.064497     2.365253
 H     2.111959    -1.652422     2.089448
 H     0.475295    -0.264164     0.703807
 C    -1.027402    -0.685450     2.173048
 C    -2.117910    -0.295196     1.232373
 C    -2.414485     1.031708     0.973690
 C    -3.406795     1.377378     0.078070
 C    -4.115607     0.382195    -0.581605
 C    -3.818143    -0.941030    -0.335979
 C    -2.823578    -1.286360     0.556799
 F    -2.498851    -2.583811     0.743991
 H    -4.365757    -1.712212    -0.846282
 F    -5.081631     0.721120    -1.457105
 F    -3.707053     2.669986    -0.156893
 H    -1.858386     1.817834     1.452964
 H    -1.351786    -1.540114     2.774294
 H    -0.844458     0.128562     2.881808
 C     0.582430    -1.524129    -2.051574
 H     0.721305    -1.619876    -3.131718
 H    -0.403981    -1.927421    -1.815670
 H     3.097315    -1.925211    -2.836540
 H     3.732128    -2.477450    -1.285844
 H     3.874235     0.186410    -1.998011
