12
Energy =
C    -0.3858168    0.5219176    0.2718322 
C    -1.2467156   -0.6601641   -0.1645571 
H    -0.7787033   -1.6050985    0.1134726 
H    -1.3802800   -0.6640220   -1.2492946 
H    -2.2362579   -0.6208884    0.2943534 
C     1.0241500    0.4867579   -0.3050578 
O     1.7630932   -0.6685908    0.0860446 
H     1.8666410   -0.6530526    1.0439976 
H     0.9829077    0.4445051   -1.3957055 
H     1.5659285    1.4003777   -0.0299250 
H    -0.8548650    1.4640726   -0.0313491 
H    -0.3200818    0.5541854    1.3661887 
