12
Energy =
C    -0.3855622    0.5153736    0.2705847 
C    -1.2472709   -0.6567666   -0.1643700 
H    -0.7891914   -1.6029123    0.1159102 
H    -1.3780953   -0.6647945   -1.2470220 
H    -2.2369753   -0.6128868    0.2883584 
C     1.0212109    0.4817162   -0.2999919 
O     1.7677763   -0.6719372    0.0825961 
H     1.8838372   -0.6412027    1.0391715 
H     0.9802445    0.4460170   -1.3891714 
H     1.5583475    1.3977240   -0.0265332 
H    -0.8494944    1.4581773   -0.0328293 
H    -0.3248269    0.5514921    1.3632967 
