20
Energy =
C    -0.7039376   -0.3141072    0.4125542 
C    -0.9862803   -1.1922404   -0.7998820 
H    -1.0241229   -0.6057475   -1.7175412 
H    -1.9509005   -1.6884834   -0.6959226 
H    -0.2348268   -1.9687914   -0.9318646 
C    -1.7982809    0.7331711    0.5770347 
H    -1.8756957    1.3769331   -0.2988647 
H    -2.7708875    0.2610521    0.7148468 
H    -1.6138430    1.3706160    1.4421615 
H    -0.7422364   -0.9586894    1.2974780 
C     0.7039376    0.3141072    0.4125542 
C     0.9862803    1.1922404   -0.7998820 
H     1.0241229    0.6057475   -1.7175412 
H     1.9509005    1.6884834   -0.6959226 
H     0.2348268    1.9687914   -0.9318646 
C     1.7982809   -0.7331711    0.5770347 
H     1.8756957   -1.3769331   -0.2988647 
H     2.7708875   -0.2610521    0.7148468 
H     1.6138430   -1.3706160    1.4421615 
H     0.7422364    0.9586894    1.2974780 
