18
Energy =
C    -1.0119564    0.7503644   -0.1530936 
C     0.1378514   -0.1709218    0.2451075 
H     0.1768077   -0.2420684    1.3384093 
C     1.4946432    0.2929829   -0.2797603 
H    -0.0701418   -1.1817482   -0.1165913 
C    -2.3769162    0.2679110    0.3201650 
O    -2.7461620   -0.9983454   -0.2234292 
H    -2.8047823   -0.9108096   -1.1813191 
H    -2.3714043    0.1243180    1.4028702 
H    -3.1418299    1.0206177    0.0916350 
H    -0.8431010    1.7547533    0.2524361 
H    -1.0331331    0.8654607   -1.2446419 
H     1.4528996    0.3622280   -1.3723021 
H     1.6955405    1.3081101    0.0799508 
C     2.6396826   -0.6296897    0.1292029 
H     2.7264991   -0.6898636    1.2171118 
H     2.4785638   -1.6443251   -0.2438741 
H     3.5969392   -0.2789744   -0.2618770 
