10
Energy =
S     0.9449185   -0.4156821   -1.1905238 
S    -0.9449185    0.4156821   -1.1905238 
C    -1.8056888   -0.5386942    0.1093450 
H    -1.7935770   -1.5980595   -0.1251546 
H    -1.3605812   -0.3666115    1.0846436 
H    -2.8346021   -0.1836787    0.1216898 
C     1.8056888    0.5386942    0.1093450 
H     1.3605812    0.3666115    1.0846436 
H     1.7935770    1.5980595   -0.1251546 
H     2.8346021    0.1836787    0.1216898 
