13
Energy =
C     0.3573363   -0.4942781    0.0000000 
C     1.7353462    0.1633314    0.0000000 
H     1.8693108    0.7953875   -0.8815937 
H     1.8693108    0.7953875    0.8815937 
H     2.5344913   -0.5799974    0.0000000 
H     0.2549355   -1.1430923   -0.8769062 
H     0.2549355   -1.1430923    0.8769062 
C    -0.7863068    0.5228733    0.0000000 
N    -2.1397624   -0.0298498    0.0000000 
H    -2.2838007   -0.6174961    0.8139935 
H    -2.2838007   -0.6174961   -0.8139935 
H    -0.6909979    1.1741613   -0.8744928 
H    -0.6909979    1.1741613    0.8744928 
