11
Energy =
C    -0.2210299   -0.4735486    0.3423335 
C     1.1797089   -0.4389311   -0.2278692 
F     1.8775896    0.6717432    0.2654700 
H     1.1667174   -0.3487943   -1.3178673 
H     1.7508700   -1.3268642    0.0527727 
C    -1.0653780    0.7335179   -0.0578473 
H    -0.6026156    1.6604298    0.2824451 
H    -1.1757883    0.7925292   -1.1436254 
H    -2.0642890    0.6748530    0.3772266 
H    -0.1530633   -0.5456534    1.4315368 
H    -0.6927217   -1.3992815   -0.0045756 
