11
Energy =
C    -0.2171670   -0.4644870    0.3410259 
C     1.1791942   -0.4368239   -0.2259957 
F     1.8937564    0.6686759    0.2593599 
H     1.1633811   -0.3568098   -1.3155508 
H     1.7390539   -1.3311874    0.0533094 
C    -1.0651962    0.7312645   -0.0563397 
H    -0.6184005    1.6605243    0.2902536 
H    -1.1713077    0.7977865   -1.1396402 
H    -2.0646148    0.6624050    0.3701533 
H    -0.1536065   -0.5406688    1.4281101 
H    -0.6850929   -1.3906793   -0.0046858 
