10
Energy =
O    -1.3389781   -0.8282051    0.0214297 
H    -1.5069317   -0.8043514    0.9709740 
C    -0.6394632    0.3688698   -0.3312950 
H    -1.1573781    1.2596051    0.0408884 
C     0.7870201    0.3385571    0.1695216 
O     1.4967870   -0.7825487   -0.3239126 
H     0.9008768   -1.5379338   -0.2291774 
H     0.7890128    0.3559320    1.2702075 
H     1.3168824    1.2300682   -0.1690364 
H    -0.6478282    0.4000069   -1.4195999 
