32
Energy =
C     0.0049274   -0.5069594    0.4690539 
C    -1.3651277    0.1519428    0.0449045 
C    -1.7978622   -0.2265384   -1.3828058 
H    -2.7632406    0.2342929   -1.6050879 
H    -1.9173046   -1.3030635   -1.5026837 
H    -1.0895960    0.1181445   -2.1340576 
C    -1.3907877    1.6837688    0.1542872 
H    -0.7464721    2.1669226   -0.5780233 
H    -1.0988063    2.0225597    1.1489267 
H    -2.4080915    2.0381105   -0.0282526 
C    -2.4479329   -0.3559592    1.0195837 
H    -3.4188228    0.0693402    0.7562776 
H    -2.5533972   -1.4404105    1.0041855 
H    -2.2186996   -0.0551911    2.0445714 
C     1.3701626    0.1543674    0.0398221 
C     2.5272859   -0.7969312    0.4126750 
H     2.5342747   -1.7031674   -0.1913814 
H     2.4785444   -1.0887219    1.4647763 
H     3.4809483   -0.2900354    0.2535347 
C     1.4705945    0.4342966   -1.4659431 
H     2.4796315    0.7740219   -1.7120097 
H     1.2739476   -0.4612531   -2.0576316 
H     0.7785084    1.2111326   -1.7880836 
C     1.6466466    1.4568500    0.8151378 
H     1.5311622    1.3005728    1.8905152 
H     1.0000896    2.2779515    0.5239161 
H     2.6759861    1.7772148    0.6380956 
H     0.0143442   -0.4436429    1.5635818 
C    -0.0091248   -2.0062873    0.1175718 
H     0.7061021   -2.5626665    0.7194800 
H    -0.9851092   -2.4523705    0.2965516 
H     0.2372191   -2.1782911   -0.9314883 
