32
Energy =
C     0.0045293   -0.5046128    0.4614928 
C    -1.3625599    0.1513583    0.0434246 
C    -1.7976192   -0.2271629   -1.3755427 
H    -2.7574245    0.2376863   -1.6022254 
H    -1.9263582   -1.3003868   -1.4937061 
H    -1.0900015    0.1071628   -2.1285499 
C    -1.3896873    1.6760782    0.1526219 
H    -0.7519064    2.1616193   -0.5803713 
H    -1.0969145    2.0162994    1.1438436 
H    -2.4047154    2.0322160   -0.0257367 
C    -2.4393262   -0.3527588    1.0174575 
H    -3.4094278    0.0709696    0.7584750 
H    -2.5495272   -1.4345132    1.0052589 
H    -2.2110883   -0.0531011    2.0405056 
C     1.3667794    0.1545530    0.0379520 
C     2.5166416   -0.7951218    0.4120658 
H     2.5282016   -1.6986157   -0.1918952 
H     2.4666191   -1.0890159    1.4610129 
H     3.4713518   -0.2934225    0.2582793 
C     1.4744087    0.4352780   -1.4598730 
H     2.4822855    0.7726722   -1.7037209 
H     1.2791549   -0.4549144   -2.0555604 
H     0.7889553    1.2134091   -1.7853057 
C     1.6429566    1.4493555    0.8121983 
H     1.5309121    1.2943659    1.8857102 
H     0.9990409    2.2710096    0.5258751 
H     2.6688825    1.7732947    0.6357377 
H     0.0150204   -0.4416244    1.5548072 
C    -0.0086860   -1.9969769    0.1150608 
H     0.7021158   -2.5533365    0.7180193 
H    -0.9809715   -2.4460698    0.2927112 
H     0.2383584   -2.1756944   -0.9300224 
