23
Energy =
C    -3.3046102    0.4433867   -0.0507579 
C    -2.0085003   -0.2439246    0.3457136 
C    -0.7791114    0.4346389   -0.2394588 
H    -0.8245720    0.3835818   -1.3324239 
H    -0.8206560    1.4991139    0.0095449 
C     0.5677063   -0.1178776    0.2271469 
C     0.7561262   -1.5741104   -0.1748215 
H    -0.0276580   -2.2111762    0.2296025 
H     0.7391507   -1.6778337   -1.2617466 
H     1.7042062   -1.9730034    0.1799731 
C     1.7036640    0.7674267   -0.2883567 
C     3.0823822    0.4331491    0.2564921 
H     3.0851316    0.4346790    1.3474199 
H     3.4299728   -0.5449520   -0.0713622 
H     3.8204309    1.1635104   -0.0737800 
H     1.7195981    0.7185638   -1.3814173 
H     1.4691637    1.8055645   -0.0401664 
H     0.5831247   -0.0652698    1.3228109 
H    -2.0475361   -1.2872451    0.0291161 
H    -1.9227940   -0.2623790    1.4358953 
H    -3.4284166    0.4559743   -1.1342498 
H    -3.3242814    1.4787495    0.2911548 
H    -4.1725212   -0.0605670    0.3736709 
