18
Energy =
C    -1.2648695    0.7302727    0.2292010 
C    -1.2648695   -0.7302727   -0.2292010 
C     0.0000000   -1.4605454    0.2292010 
C     1.2648695   -0.7302727   -0.2292010 
C     1.2648695    0.7302727    0.2292010 
C     0.0000000    1.4605454   -0.2292010 
H    -0.0000000    2.4882351    0.1436899 
H    -0.0000000    1.5249161   -1.3236025 
H     2.1548748    1.2441175   -0.1436899 
H     1.3206161    0.7624581    1.3236025 
H     2.1548748   -1.2441175    0.1436899 
H     1.3206161   -0.7624581   -1.3236025 
H     0.0000000   -2.4882351   -0.1436899 
H     0.0000000   -1.5249161    1.3236025 
H    -2.1548748   -1.2441175    0.1436899 
H    -1.3206161   -0.7624581   -1.3236025 
H    -2.1548748    1.2441175   -0.1436899 
H    -1.3206161    0.7624581    1.3236025 
