38
Energy =
C    -0.6317516   -0.4284495    0.0000000 
C    -1.9218556    0.3878272    0.0000000 
C    -3.1853759   -0.4691205    0.0000000 
C    -4.4755006    0.3469053    0.0000000 
C    -5.7399918   -0.5095021    0.0000000 
C    -7.0236099    0.3165606    0.0000000 
H    -7.0761011    0.9606863   -0.8815161 
H    -7.0761011    0.9606863    0.8815161 
H    -7.9106244   -0.3201651    0.0000000 
H    -5.7278916   -1.1680066   -0.8750378 
H    -5.7278916   -1.1680066    0.8750378 
H    -4.4868464    1.0066279    0.8754060 
H    -4.4868464    1.0066279   -0.8754060 
H    -3.1747849   -1.1286140   -0.8753909 
H    -3.1747849   -1.1286140    0.8753909 
H    -1.9323600    1.0473338    0.8753511 
H    -1.9323600    1.0473338   -0.8753511 
C     0.6317516    0.4284495    0.0000000 
C     1.9218556   -0.3878272    0.0000000 
C     3.1853759    0.4691205    0.0000000 
C     4.4755006   -0.3469053    0.0000000 
C     5.7399918    0.5095021    0.0000000 
C     7.0236099   -0.3165606    0.0000000 
H     7.0761011   -0.9606863   -0.8815161 
H     7.9106244    0.3201651    0.0000000 
H     7.0761011   -0.9606863    0.8815161 
H     5.7278916    1.1680066   -0.8750378 
H     5.7278916    1.1680066    0.8750378 
H     4.4868464   -1.0066279    0.8754060 
H     4.4868464   -1.0066279   -0.8754060 
H     3.1747849    1.1286140   -0.8753909 
H     3.1747849    1.1286140    0.8753909 
H     1.9323600   -1.0473338   -0.8753511 
H     1.9323600   -1.0473338    0.8753511 
H     0.6212521    1.0879656    0.8753561 
H     0.6212521    1.0879656   -0.8753561 
H    -0.6212521   -1.0879656   -0.8753561 
H    -0.6212521   -1.0879656    0.8753561 
