11
Energy =
C    -0.3207390   -0.3655751   -0.4157284 
C     0.9802977   -0.7792879    0.2453001 
H     1.3183842   -1.7517364   -0.1044056 
H     0.8938004   -0.7984649    1.3304589 
Cl    2.3331160    0.3711026   -0.1229305 
C    -0.8894214    0.9520914    0.0998442 
H    -1.0688821    0.9065415    1.1769361 
H    -1.8374516    1.1831078   -0.3882443 
H    -0.2009347    1.7757738   -0.0906024 
H    -0.1715861   -0.3181674   -1.4972307 
H    -1.0365834   -1.1753854   -0.2333975 
