11
Energy =
C    -0.3179915   -0.3616306   -0.4115911 
C     0.9750117   -0.7791808    0.2438381 
H     1.3115178   -1.7488304   -0.1087387 
H     0.8900908   -0.8039586    1.3266929 
Cl    2.3404266    0.3754602   -0.1195074 
C    -0.8873198    0.9487787    0.0985988 
H    -1.0673092    0.9091736    1.1732421 
H    -1.8340170    1.1770801   -0.3880080 
H    -0.2049410    1.7736111   -0.0934257 
H    -0.1741043   -0.3188117   -1.4918246 
H    -1.0313641   -1.1716915   -0.2292763 
