23
Energy =
C     0.0000000    0.0000000    0.6851948 
H     0.1614353    0.8609781    1.3452193 
H    -0.1614353   -0.8609781    1.3452193 
C    -1.2863295    0.2361268   -0.1171893 
C    -2.4543629    0.5073408    0.8329348 
H    -3.3718518    0.7241538    0.2813586 
H    -2.6461165   -0.3616729    1.4691915 
H    -2.2450325    1.3576205    1.4860240 
C    -1.6121093   -0.9320216   -1.0493370 
H    -0.8355945   -1.0870014   -1.7998579 
H    -2.5522107   -0.7583347   -1.5774491 
H    -1.7165686   -1.8611791   -0.4810300 
H    -1.1482432    1.1315762   -0.7324624 
C     1.2863295   -0.2361268   -0.1171893 
C     2.4543629   -0.5073408    0.8329348 
H     2.2450325   -1.3576205    1.4860240 
H     3.3718518   -0.7241538    0.2813586 
H     2.6461165    0.3616729    1.4691915 
C     1.6121093    0.9320216   -1.0493370 
H     0.8355945    1.0870014   -1.7998579 
H     2.5522107    0.7583347   -1.5774491 
H     1.7165686    1.8611791   -0.4810300 
H     1.1482432   -1.1315762   -0.7324624 
