23
Energy =
C     0.0000000   -0.0000000    0.6819544 
H     0.1628232    0.8575397    1.3430781 
H    -0.1628232   -0.8575397    1.3430781 
C    -1.2826337    0.2383652   -0.1135456 
C    -2.4454978    0.4984447    0.8356515 
H    -3.3620899    0.7217650    0.2897387 
H    -2.6394812   -0.3744158    1.4615781 
H    -2.2390181    1.3392638    1.4980011 
C    -1.6052371   -0.9147974   -1.0533718 
H    -0.8349596   -1.0582828   -1.8092079 
H    -2.5464135   -0.7430440   -1.5754608 
H    -1.7023250   -1.8501686   -0.4990054 
H    -1.1476294    1.1396431   -0.7184333 
C     1.2826337   -0.2383652   -0.1135456 
C     2.4454978   -0.4984447    0.8356515 
H     2.2390181   -1.3392638    1.4980011 
H     3.3620899   -0.7217650    0.2897387 
H     2.6394812    0.3744158    1.4615781 
C     1.6052371    0.9147974   -1.0533718 
H     0.8349596    1.0582828   -1.8092079 
H     2.5464135    0.7430440   -1.5754608 
H     1.7023250    1.8501686   -0.4990054 
H     1.1476294   -1.1396431   -0.7184333 
