20
Energy =
C     3.2078026   -0.2204680    0.0000000 
C     1.8852512    0.5416752    0.0000000 
C     0.6642646   -0.3758047    0.0000000 
C    -0.6642646    0.3758047    0.0000000 
C    -1.8852512   -0.5416752    0.0000000 
C    -3.2078026    0.2204680    0.0000000 
H    -3.2918411    0.8612110   -0.8815428 
H    -4.0624557   -0.4590425    0.0000000 
H    -3.2918411    0.8612110    0.8815428 
H    -1.8408657   -1.1987619    0.8750487 
H    -1.8408657   -1.1987619   -0.8750487 
H    -0.7080272    1.0341180    0.8754691 
H    -0.7080272    1.0341180   -0.8754691 
H     0.7080272   -1.0341180    0.8754691 
H     0.7080272   -1.0341180   -0.8754691 
H     1.8408657    1.1987619    0.8750487 
H     1.8408657    1.1987619   -0.8750487 
H     3.2918411   -0.8612110   -0.8815428 
H     4.0624557    0.4590425    0.0000000 
H     3.2918411   -0.8612110    0.8815428 
