20
Energy =
C     3.1968775   -0.2192887    0.0000000 
C     1.8796463    0.5376077    0.0000000 
C     0.6619350   -0.3736190    0.0000000 
C    -0.6619350    0.3736190    0.0000000 
C    -1.8796463   -0.5376077    0.0000000 
C    -3.1968775    0.2192887    0.0000000 
H    -3.2845806    0.8590923   -0.8788117 
H    -4.0498972   -0.4587029    0.0000000 
H    -3.2845806    0.8590923    0.8788117 
H    -1.8356269   -1.1953073    0.8722257 
H    -1.8356269   -1.1953073   -0.8722257 
H    -0.7054222    1.0324225    0.8725810 
H    -0.7054222    1.0324225   -0.8725810 
H     0.7054222   -1.0324225    0.8725810 
H     0.7054222   -1.0324225   -0.8725810 
H     1.8356269    1.1953073    0.8722257 
H     1.8356269    1.1953073   -0.8722257 
H     3.2845806   -0.8590923   -0.8788117 
H     4.0498972    0.4587029    0.0000000 
H     3.2845806   -0.8590923    0.8788117 
