  40
        -58.44698858
 S          3.6641458228       -0.9793684657       -0.4588630919
 C          3.9268157563       -1.9936855011        0.9066268946
 C          2.9553288082       -1.8514063912        1.8402129318
 C          1.9742609043       -0.9044602757        1.4654579722
 C          2.2146259231       -0.3478542994        0.2489499650
 C          1.4205140198        0.7115927955       -0.4557830012
 C          1.9615351956        2.1019517312       -0.0895100168
 H          1.7420282571        2.2888787531        0.9624939921
 H          3.0450971892        2.0884376055       -0.2168690578
 C          1.3723682933        3.2251828029       -0.9638659906
 N         -0.0306236655        3.5205649656       -0.7856259366
 H         -0.5758827688        2.6724820296       -0.9054509189
 C         -0.3665335459        4.1372220003        0.4804240783
 H          0.2065795654        5.0595909332        0.5831320598
 H         -0.1682165859        3.5083489742        1.3603430686
 H         -1.4265435171        4.3876731238        0.4700001192
 H          1.9297194081        4.1459047373       -0.7650120085
 H          1.5187592230        2.9629707895       -2.0169899971
 O          0.0605440299        0.6717709525       -0.0671319500
 C         -0.7077361081       -0.3981039568       -0.4220579247
 C         -0.2749372611       -1.4729410046       -1.1580089448
 C         -1.1590103944       -2.5138039005       -1.4790259150
 C         -2.4604513757       -2.4851367504       -1.0709968658
 C         -2.9418302204       -1.3984716970       -0.3106508438
 C         -4.2792531958       -1.3305635428        0.1314162070
 C         -4.7240510443       -0.2686714936        0.8682672275
 C         -3.8493429101        0.7755594034        1.2004171981
 C         -2.5461849298        0.7407662531        0.7874361488
 C         -2.0612880844       -0.3392068007        0.0235961267
 H         -1.8671008272        1.5387641731        1.0432671259
 H         -4.2123687911        1.6078864436        1.7854782148
 H         -5.7511990269       -0.2273023752        1.2006422665
 H         -4.9482442997       -2.1394544640       -0.1259977705
 H         -3.1369624787       -3.2889546708       -1.3208548430
 H         -0.7854985131       -3.3447369420       -2.0591879321
 H          0.7459087177       -1.5448451223       -1.4980099836
 H          1.5048699628        0.5755557895       -1.5462780049
 H          1.1198129561       -0.6552011783        2.0689200053
 H          2.9321447796       -2.3974113918        2.7660549308
 H          4.7882656828       -2.6307656015        0.9252558598
