   40
FINAL HEAT OF FORMATION =    -7.480539
 S    -0.697618     0.710758     1.313702
 C    -1.821770     1.680892     2.198800
 C    -2.790793     2.162294     1.395422
 C    -2.670378     1.720228     0.046852
 C    -1.621108     0.890133    -0.163628
 C    -1.345505     0.213080    -1.476807
 C    -2.485094    -0.733889    -1.897032
 H    -3.450351    -0.231748    -1.781252
 H    -2.384827    -0.952138    -2.967021
 C    -2.473229    -2.043779    -1.117532
 N    -2.743303    -1.899111     0.312252
 H    -2.121917    -1.172415     0.683369
 C    -4.121441    -1.626390     0.685676
 H    -4.464131    -0.675583     0.277473
 H    -4.227803    -1.596643     1.770414
 H    -4.770470    -2.414896     0.306882
 H    -3.200773    -2.752514    -1.528896
 H    -1.493312    -2.522192    -1.230132
 O    -0.114382    -0.533261    -1.461489
 C     1.037963     0.201194    -1.168220
 C     1.294067     1.480164    -1.629302
 C     2.467184     2.146645    -1.287697
 C     3.400828     1.556208    -0.483892
 C     3.192296     0.254870     0.020721
 C     4.121631    -0.385841     0.870250
 C     3.870576    -1.634714     1.356464
 C     2.686013    -2.300552     1.023346
 C     1.771851    -1.708943     0.201995
 C     2.005199    -0.428806    -0.322739
 H     0.851746    -2.206651    -0.050277
 H     2.495863    -3.284022     1.420925
 H     4.585459    -2.113251     2.005610
 H     5.029825     0.129058     1.132236
 H     4.304357     2.079152    -0.222284
 H     2.639609     3.141627    -1.664460
 H     0.582261     1.959281    -2.275791
 H    -1.232340     0.994768    -2.241410
 H    -3.373466     1.986137    -0.727744
 H    -3.588803     2.804805     1.738607
 H    -1.728976     1.882110     3.249481
