23
Energy =
C    -1.3579372   -0.5815411    1.2407521 
H    -1.2327090   -1.6654818    1.3071393 
H    -0.9815780   -0.1411323    2.1642563 
H    -2.4287554   -0.3721101    1.1913162 
C    -0.6469103   -0.0185907    0.0000000 
C    -1.3579372   -0.5815411   -1.2407521 
H    -2.4287554   -0.3721101   -1.1913162 
H    -0.9815780   -0.1411323   -2.1642563 
H    -1.2327090   -1.6654818   -1.3071393 
C    -0.7878756    1.5098839    0.0000000 
H    -0.3307464    1.9585520    0.8833021 
H    -0.3307464    1.9585520   -0.8833021 
H    -1.8440381    1.7891493    0.0000000 
C     0.8470138   -0.4701059    0.0000000 
C     1.6244666   -0.0378525    1.2479623 
H     2.6400583   -0.4373780    1.2117317 
H     1.1664421   -0.3943372    2.1700022 
H     1.7070992    1.0495700    1.3101711 
C     1.6244666   -0.0378525   -1.2479623 
H     2.6400583   -0.4373780   -1.2117317 
H     1.1664421   -0.3943372   -2.1700022 
H     1.7070992    1.0495700   -1.3101711 
H     0.8191300   -1.5669146    0.0000000 
