23
Energy =
C    -1.3527724   -0.5776326    1.2354428 
H    -1.2214994   -1.6579895    1.3088342 
H    -0.9870955   -0.1322511    2.1579877 
H    -2.4229706   -0.3780060    1.1841864 
C    -0.6447730   -0.0163629    0.0000000 
C    -1.3527724   -0.5776326   -1.2354428 
H    -2.4229706   -0.3780060   -1.1841864 
H    -0.9870955   -0.1322511   -2.1579877 
H    -1.2214994   -1.6579895   -1.3088342 
C    -0.7889372    1.5046490    0.0000000 
H    -0.3356208    1.9564254    0.8806585 
H    -0.3356208    1.9564254   -0.8806585 
H    -1.8429271    1.7829494    0.0000000 
C     0.8444646   -0.4654808    0.0000000 
C     1.6203204   -0.0400424    1.2425409 
H     2.6327962   -0.4414419    1.2078891 
H     1.1656867   -0.3954330    2.1638701 
H     1.7098503    1.0439828    1.3092080 
C     1.6203204   -0.0400424   -1.2425409 
H     2.6327962   -0.4414419   -1.2078891 
H     1.1656867   -0.3954330   -2.1638701 
H     1.7098503    1.0439828   -1.3092080 
H     0.8147827   -1.5609783    0.0000000 
