23
Energy =
C    -0.0000000   -0.0000000    0.5001496 
C    -1.3063228    0.0769937   -0.3645589 
C    -2.6003988   -0.2866723    0.4375579 
C    -3.9283084    0.1591000   -0.2558048 
F    -4.9550974   -0.3865234    0.3986178 
F    -4.0610015    1.4840936   -0.2261048 
F    -3.9566047   -0.2553278   -1.5246539 
F    -2.5584741    0.3014537    1.6499323 
F    -2.6516781   -1.6210046    0.5973341 
F    -1.4286371    1.3302098   -0.8432112 
F    -1.1993482   -0.7770900   -1.4011448 
C     1.3063228   -0.0769937   -0.3645589 
C     2.6003988    0.2866723    0.4375579 
C     3.9283084   -0.1591000   -0.2558048 
F     3.9566047    0.2553278   -1.5246539 
F     4.0610015   -1.4840936   -0.2261048 
F     4.9550974    0.3865234    0.3986178 
F     2.6516781    1.6210046    0.5973341 
F     2.5584741   -0.3014537    1.6499323 
F     1.1993482    0.7770900   -1.4011448 
F     1.4286371   -1.3302098   -0.8432112 
F     0.0576554    1.0949743    1.2819614 
F    -0.0576554   -1.0949743    1.2819614 
