50
Energy =
C    -2.2678384   -0.4929250    2.1586679 
C    -1.9931196    0.4006403    0.9588805 
C    -2.2661870   -0.2734170   -0.3757409 
C    -1.9554131    0.6080959   -1.5745714 
C    -2.1712866   -0.0793521   -2.9132709 
C    -1.8597738    0.8113726   -4.1035692 
H    -2.0136418    0.2893034   -5.0474236 
H    -0.8244447    1.1516012   -4.0815551 
H    -2.4947295    1.6980005   -4.1095088 
H    -1.5511636   -0.9787055   -2.9566523 
H    -3.2056203   -0.4276168   -2.9768662 
H    -0.9182485    0.9496719   -1.5105150 
H    -2.5694867    1.5125062   -1.5290396 
H    -1.6712608   -1.1896428   -0.4402128 
H    -3.3113829   -0.5932735   -0.4196497 
H    -0.9524972    0.7289401    0.9704699 
H    -2.5930364    1.3122501    1.0398965 
C    -1.9524455    0.1424227    3.5110351 
C    -0.5010128    0.5737282    3.6977223 
C     0.5010128   -0.5737282    3.6977223 
C     1.9524455   -0.1424227    3.5110351 
C     2.2678384    0.4929250    2.1586679 
C     1.9931196   -0.4006403    0.9588805 
C     2.2661870    0.2734170   -0.3757409 
C     1.9554131   -0.6080959   -1.5745714 
C     2.1712866    0.0793521   -2.9132709 
H     2.5694867   -1.5125062   -1.5290396 
H     0.9182485   -0.9496719   -1.5105150 
H     1.6712608    1.1896428   -0.4402128 
H     3.3113829    0.5932735   -0.4196497 
H     0.9524972   -0.7289401    0.9704699 
H     2.5930364   -1.3122501    1.0398965 
H     1.7062096    1.4229701    2.0447352 
H     3.3204442    0.7875816    2.1483707 
H     2.5978918   -1.0142884    3.6479441 
H     2.2249860    0.5603309    4.3032753 
H     0.4091345   -1.1232886    4.6379426 
H     0.2447550   -1.2922875    2.9196353 
H    -0.4091345    1.1232886    4.6379426 
H    -0.2447550    1.2922875    2.9196353 
H    -2.5978918    1.0142884    3.6479441 
H    -2.2249860   -0.5603309    4.3032753 
H    -1.7062096   -1.4229701    2.0447352 
H    -3.3204442   -0.7875816    2.1483707 
C     1.8597738   -0.8113726   -4.1035692 
H     1.5511636    0.9787055   -2.9566523 
H     3.2056203    0.4276168   -2.9768662 
H     2.0136418   -0.2893034   -5.0474236 
H     2.4947295   -1.6980005   -4.1095088 
H     0.8244447   -1.1516012   -4.0815551 
