11
Energy =
C    -0.3542935   -0.3283464   -0.4216675 
C     0.8743553   -0.8835003    0.2519352 
H     1.1325867   -1.8717754   -0.1109855 
H     0.7773957   -0.9089792    1.3325997 
Br    2.4893755    0.2109301   -0.0886822 
C    -0.8075975    1.0220846    0.0993392 
H    -0.0491010    1.7826993   -0.0716470 
H    -1.0060561    0.9854759    1.1707575 
H    -1.7217440    1.3431140   -0.3968850 
H    -0.1874838   -0.2840343   -1.4983940 
H    -1.1474372   -1.0676681   -0.2663703 
