24
Energy =
C     2.2302782   -0.9371351    0.1603509 
C     1.0894598   -0.0465603   -0.3216476 
H     2.2592099   -0.9404349    1.2549458 
C     3.6036208   -0.5453215   -0.3759505 
S     4.2193187    1.0873685    0.1840007 
H     4.3447931    0.7673001    1.4829780 
H     3.5807553   -0.4629014   -1.4647044 
H     4.3514497   -1.2972082   -0.1255579 
H     2.0352453   -1.9724981   -0.1433914 
H     1.0480909   -0.0793053   -1.4167053 
C    -0.2679334   -0.4499957    0.2480370 
H     1.3056393    0.9909545   -0.0537174 
C    -1.4148441    0.4312286   -0.2400276 
H    -0.4786656   -1.4940052   -0.0113402 
H    -0.2247976   -0.4126188    1.3425959 
C    -2.7741749    0.0359860    0.3326978 
H    -1.2035678    1.4751469    0.0181568 
H    -1.4598856    0.3937472   -1.3346174 
C    -3.9134239    0.9234959   -0.1615737 
H    -2.9837357   -1.0074174    0.0740494 
H    -2.7280261    0.0740546    1.4262476 
H    -3.7444620    1.9680707    0.1120827 
H    -4.0022233    0.8788952   -1.2500471 
H    -4.8721211    0.6191535    0.2631379 
