24
Energy =
C     2.2251813   -0.9340630    0.1550541 
C     1.0873360   -0.0493769   -0.3225137 
H     2.2527048   -0.9417293    1.2478579 
C     3.5928223   -0.5461058   -0.3763782 
S     4.2031688    1.0942180    0.1806234 
H     4.2889260    0.7733051    1.4890832 
H     3.5747361   -0.4706189   -1.4631027 
H     4.3387896   -1.2953569   -0.1208523 
H     2.0328988   -1.9684569   -0.1477269 
H     1.0445860   -0.0807075   -1.4155096 
C    -0.2646772   -0.4480242    0.2463811 
H     1.3051826    0.9863153   -0.0580366 
C    -1.4081479    0.4282820   -0.2390726 
H    -0.4764594   -1.4909768   -0.0081081 
H    -0.2207577   -0.4102274    1.3389421 
C    -2.7627709    0.0374317    0.3308116 
H    -1.1968609    1.4709438    0.0154037 
H    -1.4530412    0.3916571   -1.3316695 
C    -3.8974297    0.9218646   -0.1573030 
H    -2.9739830   -1.0039288    0.0731632 
H    -2.7162089    0.0716015    1.4225980 
H    -3.7308169    1.9643408    0.1159877 
H    -3.9911301    0.8806738   -1.2430363 
H    -4.8540485    0.6189390    0.2674035 
