   50
FINAL HEAT OF FORMATION =    -8.084283
 O    -1.247229     1.525657     0.902931
 C    -1.352053     1.997281    -0.451537
 C    -1.101300     3.508244    -0.499759
 C     0.268470     3.882090     0.029000
 H     1.060822     3.398004    -0.544516
 H     0.444790     4.959064    -0.010794
 H     0.381235     3.569581     1.068167
 H    -1.876031     4.008311     0.090763
 H    -1.229261     3.869660    -1.527310
 C    -2.713616     1.619773    -1.054417
 C    -3.868926     2.044488    -0.170997
 H    -3.755041     1.630793     0.832427
 H    -4.830974     1.707003    -0.562589
 H    -3.920346     3.128964    -0.068014
 H    -2.763296     0.537031    -1.212140
 H    -2.808766     2.062240    -2.053188
 H    -0.546595     1.509928    -1.023652
 C    -0.459943     0.333550     1.070702
 C     0.986233     0.546516     0.756385
 C     1.774931    -0.371436     0.206746
 C     3.182462    -0.009423    -0.077713
 O     3.561804     1.129336     0.122647
 O     3.978327    -1.012388    -0.560762
 C     5.284716    -0.536774    -0.791206
 C     6.048974    -0.286459     0.491136
 H     5.532627     0.459821     1.096306
 H     7.062818     0.071778     0.304897
 H     6.113422    -1.197699     1.086061
 H     5.789976    -1.282110    -1.419447
 H     5.193185     0.379368    -1.390892
 C     1.294689    -1.739003    -0.170985
 H     1.276000    -1.808126    -1.262921
 H     2.030304    -2.481388     0.157483
 C    -0.103424    -2.095313     0.377135
 N    -0.703535    -3.241533    -0.326140
 H    -0.161167    -3.499905    -1.139999
 H    -1.611998    -2.920309    -0.673225
 H    -0.012117    -2.380755     1.437168
 C    -1.049887    -0.875278     0.308515
 N    -2.385605    -1.196293     0.796428
 C    -3.394386    -1.620669    -0.041826
 O    -3.186665    -1.872522    -1.213408
 C    -4.759730    -1.781630     0.524866
 H    -5.487726    -1.254841    -0.090477
 H    -5.037261    -2.834536     0.548477
 H    -4.817911    -1.387450     1.538735
 H    -2.574091    -0.936002     1.765379
 H    -1.146930    -0.608902    -0.750104
 H     1.410251     1.508831     0.975861
 H    -0.538222     0.105728     2.144694
