29
Energy =
C    -0.0000000    0.0000000   -0.8040968 
C    -1.3732061   -0.0039460   -0.0795462 
C    -1.7207478    1.3766616    0.4999144 
H    -2.7486013    1.3799864    0.8709975 
H    -1.6417893    2.1517661   -0.2662024 
H    -1.0725560    1.6564373    1.3276005 
C    -1.4838731   -1.0590269    1.0276612 
H    -0.8390673   -0.8302496    1.8761451 
H    -1.2222656   -2.0530617    0.6597423 
H    -2.5104658   -1.1012928    1.3999999 
C    -2.4231787   -0.3308247   -1.1566503 
H    -3.4317974   -0.2943637   -0.7385934 
H    -2.3755289    0.3846311   -1.9812301 
H    -2.2647874   -1.3297193   -1.5696103 
C     1.3732061    0.0039460   -0.0795462 
C     2.4231787    0.3308247   -1.1566503 
H     3.4317974    0.2943637   -0.7385934 
H     2.2647874    1.3297193   -1.5696103 
H     2.3755289   -0.3846311   -1.9812301 
C     1.4838731    1.0590269    1.0276612 
H     2.5104658    1.1012928    1.3999999 
H     1.2222656    2.0530617    0.6597423 
H     0.8390673    0.8302496    1.8761451 
C     1.7207478   -1.3766616    0.4999144 
H     1.6417893   -2.1517661   -0.2662024 
H     1.0725560   -1.6564373    1.3276005 
H     2.7486013   -1.3799864    0.8709975 
H     0.0160710   -0.8709380   -1.4681798 
H    -0.0160710    0.8709380   -1.4681798 
