  43
        -70.32118851
 S         -2.4178132076        2.2325268362        0.4735858239
 O         -2.1401062914        3.5789648438       -0.0354162016
 C         -0.7778331632        1.5242729464        0.6862888485
 N         -0.4547781026        0.5135649825        1.4375338710
 C          0.8807399125        0.3038880639        1.1938778836
 C          1.7611049709       -0.6489908690        1.6998539084
 C          3.0525609731       -0.6381137950        1.2349749163
 C          3.5027309183        0.3016242149        0.2857509001
 C          2.6496208588        1.2710281496       -0.2152771248
 C          1.3435818571        1.2526100747        0.2517208673
 N          0.2572458087        2.0293779987       -0.0365491552
 H          0.1808137625        2.8066719809       -0.6727021714
 H          2.9612848158        2.0080201552       -0.9369471378
 O          4.8092199295        0.1636872921       -0.0721060889
 C          5.3494818769        1.0687183081       -1.0036151038
 H          4.8352148869        1.0075062554       -1.9682751058
 H          6.3898598967        0.7744613727       -1.1314940913
 H          5.3079588080        2.0983043129       -0.6337791249
 H          3.7740150173       -1.3570477412        1.5902249354
 H          1.4345920125       -1.3654958752        2.4353859209
 C         -2.8089651324        1.2185877796       -1.0756981581
 C         -1.9829690525       -0.0126001683       -1.1353541280
 N         -0.9256800517        0.0534208838       -1.9367591227
 C         -0.0862889859       -0.9619820626       -1.9708600969
 C         -0.2203709168       -2.1061740556       -1.1973010746
 C         -1.3357289178       -2.1717471107       -0.3575980802
 C         -2.2490669862       -1.1166281690       -0.3212591073
 C         -3.4322359895       -1.1546412269        0.5927318860
 H         -3.2888010400       -0.4531632011        1.4139828727
 H         -3.5506039274       -2.1559052264        0.9979939055
 H         -4.3433780037       -0.8843612965        0.0620978748
 O         -1.5537478509       -3.2841921089        0.4303609409
 C         -0.9115778629       -3.2205010419        1.6904219436
 H         -1.1192969275       -2.2701600452        2.1907719231
 H          0.1716951454       -3.3393569740        1.5867659528
 H         -1.3132768133       -4.0460600560        2.2761119578
 C          0.7953591543       -3.2024699910       -1.2479450460
 H          0.3510252131       -4.1426780133       -0.9303000298
 H          1.1860611678       -3.3122889862       -2.2570520413
 H          1.6298341349       -2.9657229237       -0.5861350456
 H          0.7542480110       -0.8485080219       -2.6434020939
 H         -3.8768671198        1.0200177115       -1.0323361607
 H         -2.5749111699        1.8808377779       -1.9066921700
