   43
FINAL HEAT OF FORMATION =    -8.038682
 S    -2.968987    -1.787805     0.285769
 O    -2.906015    -1.356725     1.763378
 C    -1.176701    -1.687275    -0.004852
 N    -0.594587    -1.803380    -1.188888
 C     0.733137    -1.556183    -0.987686
 C     1.795898    -1.462742    -1.896835
 C     3.036464    -1.133562    -1.425214
 C     3.287392    -0.889955    -0.051583
 C     2.238209    -0.993765     0.856222
 C     0.970284    -1.315392     0.386410
 N    -0.267739    -1.426725     0.993850
 H    -0.494745    -1.285794     1.978926
 H     2.382835    -0.820627     1.904374
 O     4.596219    -0.548083     0.298093
 C     4.812402    -0.372834     1.676698
 H     4.568458    -1.292811     2.209365
 H     4.208728     0.456816     2.046128
 H     5.866482    -0.141383     1.833559
 H     3.867365    -1.050115    -2.102647
 H     1.615163    -1.637786    -2.942089
 C    -3.433806    -0.138475    -0.389977
 C    -2.272789     0.758284    -0.649206
 N    -1.802957     0.758659    -1.898503
 C    -0.700584     1.449948    -2.124535
 C    -0.005668     2.169302    -1.181318
 C    -0.504818     2.193344     0.122958
 C    -1.684543     1.484537     0.381737
 C    -2.258051     1.528522     1.749168
 H    -1.658749     2.167373     2.398293
 H    -2.291040     0.533803     2.192257
 H    -3.270943     1.930916     1.735617
 O     0.165829     2.899012     1.153537
 C     1.177781     2.135588     1.776064
 H     1.644108     2.736066     2.557381
 H     1.928900     1.849981     1.039448
 H     0.739194     1.240268     2.217282
 C     1.251828     2.875702    -1.520470
 H     1.479797     3.635550    -0.772306
 H     2.089021     2.178117    -1.561801
 H     1.174361     3.372360    -2.488082
 H    -0.319419     1.421515    -3.132560
 H    -3.966050    -0.307762    -1.326540
 H    -4.140339     0.323702     0.298281
