17
Energy =
C    -0.4875394    0.0290499    0.3417207 
C    -1.7398664    0.8414642    0.0089008 
H    -1.9098384    0.8641211   -1.0716164 
H    -1.6466767    1.8742285    0.3524567 
H    -2.6285405    0.4102561    0.4751020 
C    -0.6579759   -1.4254213   -0.1010743 
H     0.1889191   -2.0459716    0.1944882 
H    -0.7549447   -1.4870048   -1.1893572 
H    -1.5572865   -1.8637512    0.3371202 
C     0.7571032    0.6829385   -0.2734893 
C     2.0824449    0.0414474    0.1312456 
H     2.1643843   -0.9858122   -0.2277266 
H     2.1922902    0.0225674    1.2189137 
H     2.9278621    0.5986627   -0.2772271 
H     0.7704650    1.7390549    0.0141629 
H     0.6588113    0.6668539   -1.3652972 
H    -0.3596117    0.0373165    1.4316774 
