17
Energy =
C    -0.4870749    0.0301808    0.3413165 
C    -1.7336103    0.8377393    0.0049888 
H    -1.9047840    0.8563649   -1.0728075 
H    -1.6436174    1.8705078    0.3420375 
H    -2.6220010    0.4117118    0.4709596 
C    -0.6546320   -1.4196101   -0.0927292 
H     0.1826373   -2.0418412    0.2174376 
H    -0.7364168   -1.4904434   -1.1791479 
H    -1.5587197   -1.8542976    0.3332781 
C     0.7543253    0.6811337   -0.2680947 
C     2.0748424    0.0392250    0.1231158 
H     2.1659852   -0.9766249   -0.2577606 
H     2.1848225   -0.0050367    1.2075917 
H     2.9180933    0.6072173   -0.2686352 
H     0.7703714    1.7336861    0.0258698 
H     0.6527685    0.6774521   -1.3577679 
H    -0.3629897    0.0426352    1.4303476 
