24
Energy =
C    -1.1813643   -0.3119865   -1.3147497 
C    -1.9234900   -0.0847752    0.0000000 
C    -1.1813643   -0.3119865    1.3147497 
C    -0.0092996    0.6357906    1.5952044 
C     1.3820524    0.0741631    1.3000944 
C     1.5634491   -0.6955913    0.0000000 
C     1.3820524    0.0741631   -1.3000944 
C    -0.0092996    0.6357906   -1.5952044 
H    -0.1638167    1.5668073   -1.0501300 
H    -0.0244762    0.9201123   -2.6491269 
H     1.6532992   -0.6010867   -2.1163713 
H     2.1081222    0.8911671   -1.3401502 
H     2.5729489   -1.1140859    0.0000000 
H     0.9000960   -1.5622603    0.0000000 
H     2.1081222    0.8911671    1.3401502 
H     1.6532992   -0.6010867    2.1163713 
H    -0.0244762    0.9201123    2.6491269 
H    -0.1638167    1.5668073    1.0501300 
H    -1.9176574   -0.2032596    2.1135547 
H    -0.8458835   -1.3503484    1.3761794 
H    -2.3064404    0.9408521    0.0000000 
H    -2.8085161   -0.7268581    0.0000000 
H    -0.8458835   -1.3503484   -1.3761794 
H    -1.9176574   -0.2032596   -2.1135547 
