   28
FINAL HEAT OF FORMATION =    -4.267150
 O     0.330175     2.214472     0.027266
 C     1.240192     1.266047    -0.296375
 O     2.351615     1.229765     0.187358
 C     0.798765     0.217601    -1.279000
 H     1.648811    -0.043218    -1.915164
 C     0.211305    -1.060054    -0.633897
 C    -0.795366    -0.740858     0.480489
 H    -1.166278    -1.673247     0.917614
 C    -1.996505     0.123625     0.052949
 C    -2.862950    -0.579415    -0.992134
 H    -3.241068    -1.525260    -0.604320
 H    -2.307963    -0.794608    -1.905334
 H    -3.724747     0.029818    -1.267411
 C    -2.830915     0.523133     1.271414
 H    -3.667411     1.164193     0.990693
 H    -2.230637     1.059853     2.007110
 H    -3.242175    -0.359015     1.762009
 H    -1.595858     1.048561    -0.397248
 H    -0.258504    -0.236089     1.290182
 H    -0.327661    -1.607616    -1.425628
 C     1.310901    -2.002806    -0.107682
 N     1.973853    -1.488990     1.073638
 H     2.231279    -0.522952     0.886520
 H     2.819167    -2.000115     1.296037
 H     0.875024    -2.976561     0.146121
 H     2.044102    -2.192990    -0.901984
 H     0.059113     0.676944    -1.941375
 H     0.769053     2.816296     0.660745
