   44
FINAL HEAT OF FORMATION =    -7.725942
 O     1.701353    -1.177660    -0.814807
 C     1.770771     0.150583    -0.370643
 C     0.506982     0.710206    -0.198382
 C     0.288126     1.875078     0.525152
 C     1.409555     2.602278     0.889575
 C     2.685563     2.143153     0.591498
 C     2.907084     0.909061    -0.010444
 O     4.221555     0.471185    -0.206091
 C     4.312760    -0.793932    -0.803513
 H     5.364417    -1.052669    -0.932333
 H     3.826860    -1.530098    -0.160733
 H     3.815432    -0.770738    -1.774518
 H     3.546434     2.721662     0.875519
 H     1.281842     3.518369     1.439939
 C    -1.095861     2.179167     1.039752
 H    -1.442971     3.114764     0.590538
 H    -1.033682     2.372533     2.115965
 C    -2.152249     1.068974     0.760436
 N    -2.908533     1.422817    -0.476123
 C    -4.220020     0.779621    -0.559599
 H    -4.796157     0.978400     0.341538
 H    -4.102300    -0.295755    -0.670232
 H    -4.773306     1.163478    -1.414127
 C    -2.073592     1.410092    -1.722481
 C    -1.296926     0.106990    -1.885699
 H    -0.580108     0.183506    -2.711138
 H    -1.983396    -0.703938    -2.149792
 C    -0.537405    -0.286081    -0.595282
 C    -1.547670    -0.375666     0.611476
 C    -0.821736    -0.833642     1.920751
 H    -0.285004     0.012051     2.360613
 H    -1.596228    -1.104148     2.645055
 C     0.131129    -2.029722     1.690379
 C    -0.034027    -2.557475     0.300676
 O    -0.529126    -3.628943     0.066890
 C     0.312150    -1.580388    -0.805783
 H     0.104453    -2.040870    -1.781331
 H     1.174701    -1.722751     1.820169
 H    -0.044925    -2.838774     2.407272
 O    -2.583318    -1.318322     0.303891
 H    -2.160631    -2.199718     0.192883
 H    -2.732425     1.589167    -2.578479
 H    -1.389106     2.262222    -1.683312
 H    -2.877859     1.033890     1.583221
