  68
       -102.49455818
 O          2.9253797806        3.8265061192        0.3891907439
 C          2.8243838512        2.6808210822       -0.0106621681
 N          3.8386679025        1.7961511608        0.2246289064
 C          3.8982539862        0.4041581544        0.0956590144
 C          2.7804460325       -0.3937388960        0.3045580693
 C          2.8613951155       -1.7742299016        0.1704821765
 C          4.0860021536       -2.3789328544       -0.1630867693
 C          5.1946471062       -1.5662218015       -0.3326768254
 C          5.1187410235       -0.1915327961       -0.2043959321
 H          5.9984929880        0.4184762455       -0.3444739740
 H          6.1451931346       -2.0190957635       -0.5742337846
 C          4.2065042432       -3.8675568592       -0.3183206535
 H          3.5633612698       -4.2324119595       -1.1201796292
 H          5.2311622606       -4.1351988171       -0.5625896266
 H          3.9345462682       -4.3819048041        0.6040443846
 N          1.7545651628       -2.5884499525        0.3640472328
 C          0.5147921435       -2.3118959894        0.8425902039
 N          0.1643320678       -1.0757239845        1.1758701062
 C         -1.0594549463       -0.8890100195        1.6652970843
 C         -1.9402618837       -1.9565360587        1.8379281615
 C         -1.4779248072       -3.2016680617        1.4423612606
 N         -0.2725657927       -3.3940920284        0.9440672827
 H         -2.0909167548       -4.0902630912        1.5336353255
 H         -2.9191858940       -1.8268810842        2.2615051455
 C         -1.4073610306        0.4903919868        2.0154819756
 C         -0.4181830875        1.4104370723        2.3595649104
 C         -0.7848161666        2.7062940748        2.6743398080
 C         -2.1310641861        3.0385149910        2.6273327742
 N         -3.0790281328        2.1783669086        2.2919478349
 C         -2.7283400573        0.9416339066        1.9955379327
 H         -3.5347550162        0.2805568364        1.7091549789
 H         -2.4725262470        4.0369439892        2.8675336949
 H         -0.0441282120        3.4406801403        2.9507917558
 H          0.6143729311        1.0965241360        2.3879899410
 H          1.8828122226       -3.5741179589        0.1826303097
 H          1.8347240048        0.0445080680        0.5680250297
 H          4.6716148741        2.2358162394        0.5987898775
 C          1.6546858829        2.2308239507       -0.8104871404
 C          0.4208808463        2.8185718974       -0.5493961933
 C         -0.6882211299        2.4955287728       -1.3062171751
 C         -0.5908180688        1.5761086983       -2.3449501034
 C          0.6526309662        1.0176507509       -2.6227160527
 C          1.7685399420        1.3470318749       -1.8795900714
 H          2.7280989686        0.9277579117       -2.1422670332
 H          0.7505600124        0.3255286930       -3.4473199986
 C         -1.8017370397        1.1700025640       -3.1496380794
 N         -2.6998569879        0.2334665615       -2.4897620124
 C         -2.0388669203       -0.9534733602       -1.9860709167
 C         -3.0913408623       -1.9713453898       -1.5590738443
 N         -3.9466419020       -1.4083593612       -0.5300898931
 C         -4.9248018475       -2.3701023840       -0.0702418246
 H         -5.6073678232       -2.6977244865       -0.8704558035
 H         -4.4081917978       -3.2446463228        0.3226242461
 H         -5.5182138790       -1.9235273577        0.7270961372
 C         -4.5828129706       -0.2060944385       -1.0390229899
 C         -3.5190890285        0.8084575936       -1.4434880618
 H         -2.9280970497        1.0722446978       -0.5515380786
 H         -4.0054040798        1.7082955350       -1.8273641344
 H         -5.2168189519       -0.4300585440       -1.9154289764
 H         -5.2126000006        0.2185915847       -0.2534360265
 H         -3.6792618391       -2.2695424934       -2.4458108249
 H         -2.5960968119       -2.8581963291       -1.1546307728
 H         -1.3868999391       -0.7258702548       -1.1254099303
 H         -1.4241248900       -1.3804553851       -2.7820458799
 H         -2.3912350908        2.0535705088       -3.4098121513
 H         -1.4731380056        0.6923115118       -4.0787700404
 H         -1.6322001598        2.9775977327       -1.0983982181
 H          0.3498327983        3.5432499548        0.2471587502
