   68
FINAL HEAT OF FORMATION =   -13.272159
 O     3.540086    -2.652798     0.831669
 C     2.349529    -2.582550     0.581179
 N     1.787376    -3.209703    -0.536061
 C     0.532660    -2.855477    -1.107288
 C     0.185245    -1.519334    -1.171270
 C    -1.060061    -1.081276    -1.588573
 C    -1.994515    -2.043518    -2.009259
 C    -1.639821    -3.384870    -1.977964
 C    -0.397655    -3.795171    -1.538948
 H    -0.143630    -4.839575    -1.497315
 H    -2.359237    -4.118394    -2.299135
 C    -3.341867    -1.629406    -2.476321
 H    -3.306522    -0.646034    -2.946225
 H    -3.736591    -2.331319    -3.211758
 H    -4.043725    -1.584472    -1.643943
 N    -1.379605     0.292444    -1.543588
 C    -0.467626     1.359498    -1.405179
 N     0.821439     1.065769    -1.249441
 C     1.650795     2.071254    -0.999360
 C     1.174782     3.369329    -0.968714
 C    -0.161850     3.560859    -1.165774
 N    -1.009756     2.576837    -1.359768
 H    -0.570246     4.559997    -1.147591
 H     1.835508     4.201182    -0.803618
 C     3.054586     1.743019    -0.696269
 C     3.545063     0.476232    -0.969993
 C     4.816479     0.161230    -0.570930
 C     5.565730     1.119005     0.071570
 N     5.142883     2.342999     0.339817
 C     3.910609     2.622511    -0.040469
 H     3.551722     3.604777     0.215858
 H     6.567234     0.878195     0.394883
 H     5.209755    -0.829262    -0.732889
 H     2.921400    -0.250082    -1.460047
 H    -2.322982     0.547324    -1.205576
 H     0.911746    -0.802179    -0.854254
 H     2.395132    -3.841036    -1.046397
 C     1.417446    -1.820893     1.454353
 C     1.575068    -0.457834     1.665656
 C     0.595075     0.266557     2.308892
 C    -0.554371    -0.354755     2.776725
 C    -0.684394    -1.724799     2.610231
 C     0.285045    -2.448783     1.956051
 H     0.158261    -3.504456     1.787774
 H    -1.569268    -2.217773     2.974430
 C    -1.676601     0.434229     3.369403
 N    -2.720057     0.822936     2.367446
 C    -2.260557     1.847957     1.404507
 C    -3.395474     2.324229     0.502710
 N    -4.041439     1.190815    -0.209217
 C    -5.032655     1.629155    -1.216887
 H    -5.447250     0.767063    -1.734801
 H    -5.843385     2.174548    -0.738529
 H    -4.556081     2.276023    -1.950587
 C    -4.526353     0.207731     0.787125
 C    -3.377796    -0.293553     1.651399
 H    -2.628322    -0.788561     1.026710
 H    -3.721313    -1.032098     2.383221
 H    -5.282929     0.694179     1.409656
 H    -5.028625    -0.614900     0.268126
 H    -4.156858     2.842547     1.092608
 H    -3.031637     3.040236    -0.241830
 H    -1.452631     1.415701     0.809035
 H    -1.823365     2.683715     1.961065
 H    -2.162787    -0.144071     4.158987
 H    -1.294753     1.340642     3.845220
 H     0.703405     1.331056     2.426097
 H     2.445645     0.032406     1.267987
