  44
        -57.70690535
 O          2.1164810755        2.5013516990        0.6344091207
 C          1.7362351285        1.4593014696        0.1324375664
 N          0.5309060404        1.2863135238       -0.4368999926
 H          0.2767462599        0.3607250521       -0.7867225265
 C         -0.4625310150        2.3319903436       -0.5240368463
 C         -1.0612477054        2.3386504259       -1.9267310991
 H         -1.5491769877        1.3889577299       -2.1334564574
 H         -1.7890073210        3.1396910115       -2.0261012967
 H         -0.2763847924        2.4920734484       -2.6635938971
 H          0.0652152056        3.2757826428       -0.3429467759
 C         -1.5420633972        2.1814809776        0.5752603139
 C         -2.1412046591        0.8074407820        0.6088255052
 C         -1.6178038227       -0.1593949570        1.4596349981
 C         -2.1292999753       -1.4446739249        1.4741954964
 C         -3.1756765993       -1.7847523109        0.6331318875
 C         -3.7175824389       -0.8252040139       -0.2058904071
 C         -3.2070768764        0.4617440814       -0.2139480921
 H         -3.6511719714        1.2077703372       -0.8572065056
 H         -4.5457426431       -1.0790740826       -0.8523870418
 H         -3.5755344688       -2.7882818015        0.6398137848
 H         -1.7154880583       -2.1815721512        2.1476023274
 H         -0.8094268149        0.1056275093        2.1255553132
 H         -1.0696791932        2.3933439297        1.5357696006
 H         -2.3156934509        2.9302967039        0.3979133361
 C          2.6296339304        0.2096753901        0.0515544013
 N          3.9905488255        0.4680924694        0.4902292820
 H          4.4078612808        1.1806083326       -0.1010285905
 H          3.9626822495        0.8614588985        1.4275360779
 C          2.0254314170       -0.9361698048        0.8745205375
 H          0.9392503895       -0.8734246056        0.8564144255
 H          2.3562673871       -0.8162553927        1.9082949483
 C          2.4538188200       -2.3139899314        0.3756876418
 H          3.5411419569       -2.3333039364        0.2895952919
 C          1.8420001207       -2.7107330186       -0.9701198409
 H          2.1727997274       -3.7249635685       -1.2024938330
 H          2.2199333831       -2.0589284585       -1.7592247767
 C          0.3092598813       -2.6728255719       -0.9972260803
 N         -0.1855208452       -1.3722278850       -1.4506854072
 H         -1.1967094283       -1.3422594652       -1.3595421643
 H          0.0393413399       -1.2497531592       -2.4341982900
 H         -0.0864800328       -2.8428967528        0.0065757077
 H         -0.0608202626       -3.4867637691       -1.6403165832
 H          2.1615855104       -3.0585672809        1.1201126968
 H          2.6726857018       -0.0825192338       -1.0031672645
