21
Energy =
C    -0.0000000   -0.0000000   -1.7714220 
C    -1.2116248    0.4892332   -0.9636447 
C    -0.8976302    1.2865938    0.3089731 
C    -0.6496470    0.4035948    1.5371592 
C     0.6496470   -0.4035948    1.5371592 
C     0.8976302   -1.2865938    0.3089731 
C     1.2116248   -0.4892332   -0.9636447 
H     1.8301748    0.3677829   -0.6789771 
H     1.8351170   -1.0932110   -1.6283895 
H     0.0433251   -1.9519956    0.1415166 
H     1.7476051   -1.9378407    0.5307009 
H     1.4975176    0.2845373    1.6344711 
H     0.6628118   -1.0282950    2.4356020 
H    -0.6628118    1.0282950    2.4356020 
H    -1.4975176   -0.2845373    1.6344711 
H    -1.7476051    1.9378407    0.5307009 
H    -0.0433251    1.9519956    0.1415166 
H    -1.8351170    1.0932110   -1.6283895 
H    -1.8301748   -0.3677829   -0.6789771 
H    -0.3379985   -0.8044808   -2.4317005 
H     0.3379985    0.8044808   -2.4317005 
