21
Energy =
C    -0.0000000    0.0000000   -1.7634915 
C    -1.2052086    0.4881727   -0.9602612 
C    -0.8950355    1.2800633    0.3076654 
C    -0.6455676    0.4027653    1.5301526 
C     0.6455676   -0.4027653    1.5301526 
C     0.8950355   -1.2800633    0.3076654 
C     1.2052086   -0.4881727   -0.9602612 
H     1.8256973    0.3661807   -0.6789782 
H     1.8289906   -1.0902939   -1.6239349 
H     0.0455114   -1.9487692    0.1416824 
H     1.7439405   -1.9301163    0.5296625 
H     1.4932655    0.2818525    1.6332165 
H     0.6584295   -1.0267429    2.4273554 
H    -0.6584295    1.0267429    2.4273554 
H    -1.4932655   -0.2818525    1.6332165 
H    -1.7439405    1.9301163    0.5296625 
H    -0.0455114    1.9487692    0.1416824 
H    -1.8289906    1.0902939   -1.6239349 
H    -1.8256973   -0.3661807   -0.6789782 
H    -0.3383233   -0.8011392   -2.4248147 
H     0.3383233    0.8011392   -2.4248147 
