8
Energy =
C    -0.5223045   -0.1597754   -0.2122504 
O    -1.0869355   -0.8686688   -1.0030383 
O    -1.1911791    0.6653169    0.6311470 
H    -2.1371215    0.5449170    0.4519941 
C     0.9631013   -0.0653579   -0.0128609 
H     1.2875614    0.9725904   -0.0924447 
H     1.4691222   -0.6779288   -0.7530870 
H     1.2177558   -0.4110934    0.9905401 
