8
Energy =
C    -0.5218297   -0.1616087   -0.2065341 
O    -1.0909370   -0.8934095   -0.9819555 
O    -1.1896802    0.6862244    0.6194431 
H    -2.1329297    0.5477750    0.4377085 
C     0.9592798   -0.0635293   -0.0129622 
H     1.2860997    0.9724739   -0.0678322 
H     1.4654722   -0.6563691   -0.7650631 
H     1.2245251   -0.4315567    0.9771953 
