21
Energy =
C     1.5428509   -0.8830271    0.2085347 
C     0.4917776    0.0605440   -0.3675434 
H     1.5491274   -0.8063005    1.3008046 
C     2.9550228   -0.6480234   -0.3182739 
S     3.6955228    0.9650195    0.1378128 
H     3.7663748    0.7336490    1.4595482 
H     2.9613749   -0.6454226   -1.4103814 
H     3.6310685   -1.4387454    0.0057466 
H     1.2669019   -1.9184686   -0.0236539 
H     0.4687523   -0.0523577   -1.4578204 
C    -0.9055975   -0.1828177    0.1957337 
H     0.7908458    1.0937605   -0.1722959 
C    -1.9644755    0.7517164   -0.3852716 
H    -1.2008746   -1.2221537    0.0096280 
H    -0.8810608   -0.0657183    1.2853756 
C    -3.3576803    0.5082269    0.1884820 
H    -1.6671990    1.7891710   -0.2003941 
H    -1.9902035    0.6328521   -1.4736299 
H    -3.6916141   -0.5134900   -0.0099179 
H    -3.3671181    0.6530305    1.2717936 
H    -4.0937963    1.1885552   -0.2442772 
