21
Energy =
C     1.5402825   -0.8811869    0.2021346 
C     0.4917131    0.0581393   -0.3667499 
H     1.5452465   -0.8110680    1.2930527 
C     2.9462600   -0.6486134   -0.3196535 
S     3.6825357    0.9718612    0.1341308 
H     3.7154667    0.7417853    1.4639228 
H     2.9567072   -0.6521391   -1.4091191 
H     3.6206950   -1.4364066    0.0084297 
H     1.2666406   -1.9152566   -0.0309690 
H     0.4676152   -0.0501010   -1.4554255 
C    -0.9000267   -0.1822895    0.1946153 
H     0.7924286    1.0886479   -0.1720021 
C    -1.9562472    0.7475402   -0.3819514 
H    -1.1958107   -1.2199892    0.0116867 
H    -0.8751009   -0.0667978    1.2824460 
C    -3.3430049    0.5089585    0.1903564 
H    -1.6583143    1.7835349   -0.2014050 
H    -1.9835545    0.6295596   -1.4684672 
H    -3.6815514   -0.5092010   -0.0050862 
H    -3.3545617    0.6545926    1.2710649 
H    -4.0774187    1.1884298   -0.2410111 
